Accel-Sim [build accelsim-commit-_modified_0.0_26-01-25-23-20-13]

        *** GPGPU-Sim Simulator Version 4.2.0  [build gpgpu-sim_git-commit-_modified_0.0] ***


GPGPU-Sim: Configuration options:

-save_embedded_ptx                      0 # saves ptx files embedded in binary as <n>.ptx
-keep                                   0 # keep intermediate files created by GPGPU-Sim when interfacing with external programs
-gpgpu_ptx_save_converted_ptxplus                    0 # Saved converted ptxplus to a file
-gpgpu_occupancy_sm_number                   80 # The SM number to pass to ptxas when getting register usage for computing GPU occupancy. This parameter is required in the config.
-ptx_opcode_latency_int           4,4,4,4,21 # Opcode latencies for integers <ADD,MAX,MUL,MAD,DIV,SHFL>Default 1,1,19,25,145,32
-ptx_opcode_latency_fp           4,4,4,4,39 # Opcode latencies for single precision floating points <ADD,MAX,MUL,MAD,DIV>Default 1,1,1,1,30
-ptx_opcode_latency_dp          6,6,6,6,330 # Opcode latencies for double precision floating points <ADD,MAX,MUL,MAD,DIV>Default 8,8,8,8,335
-ptx_opcode_latency_sfu                   21 # Opcode latencies for SFU instructionsDefault 8
-ptx_opcode_latency_tesnor                   25 # Opcode latencies for Tensor instructionsDefault 64
-ptx_opcode_initiation_int            2,2,2,2,2 # Opcode initiation intervals for integers <ADD,MAX,MUL,MAD,DIV,SHFL>Default 1,1,4,4,32,4
-ptx_opcode_initiation_fp            2,2,2,2,4 # Opcode initiation intervals for single precision floating points <ADD,MAX,MUL,MAD,DIV>Default 1,1,1,1,5
-ptx_opcode_initiation_dp          4,4,4,4,130 # Opcode initiation intervals for double precision floating points <ADD,MAX,MUL,MAD,DIV>Default 8,8,8,8,130
-ptx_opcode_initiation_sfu                    8 # Opcode initiation intervals for sfu instructionsDefault 8
-ptx_opcode_initiation_tensor                   16 # Opcode initiation intervals for tensor instructionsDefault 64
-cdp_latency         7200,8000,100,12000,1600 # CDP API latency <cudaStreamCreateWithFlags, cudaGetParameterBufferV2_init_perWarp, cudaGetParameterBufferV2_perKernel, cudaLaunchDeviceV2_init_perWarp, cudaLaunchDevicV2_perKernel>Default 7200,8000,100,12000,1600
-network_mode                           2 # Interconnection network mode
-inter_config_file                   mesh # Interconnection network config file
-icnt_in_buffer_limit                  435 # in_buffer_limit
-icnt_out_buffer_limit                  693 # out_buffer_limit
-icnt_subnets                           2 # subnets
-icnt_arbiter_algo                      1 # arbiter_algo
-icnt_verbose                           0 # inct_verbose
-icnt_grant_cycles                      1 # grant_cycles
-gpgpu_ptx_use_cuobjdump                    1 # Use cuobjdump to extract ptx and sass from binaries
-gpgpu_experimental_lib_support                    0 # Try to extract code from cuda libraries [Broken because of unknown cudaGetExportTable]
-checkpoint_option                      0 #  checkpointing flag (0 = no checkpoint)
-checkpoint_kernel                      1 #  checkpointing during execution of which kernel (1- 1st kernel)
-checkpoint_CTA                         0 #  checkpointing after # of CTA (< less than total CTA)
-resume_option                          0 #  resume flag (0 = no resume)
-resume_kernel                          0 #  Resume from which kernel (1= 1st kernel)
-resume_CTA                             0 #  resume from which CTA 
-checkpoint_CTA_t                       0 #  resume from which CTA 
-checkpoint_insn_Y                      0 #  resume from which CTA 
-gpgpu_ptx_convert_to_ptxplus                    0 # Convert SASS (native ISA) to ptxplus and run ptxplus
-gpgpu_ptx_force_max_capability                   80 # Force maximum compute capability
-gpgpu_ptx_inst_debug_to_file                    0 # Dump executed instructions' debug information to file
-gpgpu_ptx_inst_debug_file       inst_debug.txt # Executed instructions' debug output file
-gpgpu_ptx_inst_debug_thread_uid                    1 # Thread UID for executed instructions' debug output
-gpgpu_simd_model                       1 # 1 = post-dominator
-gpgpu_shader_core_pipeline              2048:32 # shader core pipeline config, i.e., {<nthread>:<warpsize>}
-gpgpu_tex_cache:l1  N:4:128:256,L:R:m:N:L,T:512:8,128:2 # per-shader L1 texture cache  (READ-ONLY) config  {<nsets>:<bsize>:<assoc>,<rep>:<wr>:<alloc>:<wr_alloc>,<mshr>:<N>:<merge>,<mq>:<rf>}
-gpgpu_const_cache:l1 N:128:64:8,L:R:f:N:L,S:2:64,4 # per-shader L1 constant memory cache  (READ-ONLY) config  {<nsets>:<bsize>:<assoc>,<rep>:<wr>:<alloc>:<wr_alloc>,<mshr>:<N>:<merge>,<mq>} 
-gpgpu_cache:il1     N:64:128:16,L:R:f:N:L,S:2:48,4 # shader L1 instruction cache config  {<sector?>:<nsets>:<bsize>:<assoc>,<rep>:<wr>:<alloc>:<wr_alloc>:<set_index_fn>,<mshr>:<N>:<merge>,<mq>} 
-gpgpu_cache:dl1     S:4:128:64,L:T:m:L:L,A:512:64,16:0,32 # per-shader L1 data cache config  {<sector?>:<nsets>:<bsize>:<assoc>,<rep>:<wr>:<alloc>:<wr_alloc>:<set_index_fn>,<mshr>:<N>:<merge>,<mq>:<fifo_entry>,<data_port_width> | none}
-gpgpu_l1_cache_write_ratio                   25 # L1D write ratio
-gpgpu_l1_banks                         4 # The number of L1 cache banks
-gpgpu_l1_banks_byte_interleaving                   32 # l1 banks byte interleaving granularity
-gpgpu_l1_banks_hashing_function                    0 # l1 banks hashing function
-gpgpu_l1_latency                      35 # L1 Hit Latency
-gpgpu_smem_latency                    38 # smem Latency
-gpgpu_cache:dl1PrefL1                 none # per-shader L1 data cache config  {<sector?>:<nsets>:<bsize>:<assoc>,<rep>:<wr>:<alloc>:<wr_alloc>:<set_index_fn>,<mshr>:<N>:<merge>,<mq>:<fifo_entry>,<data_port_width> | none}
-gpgpu_cache:dl1PrefShared                 none # per-shader L1 data cache config  {<sector?>:<nsets>:<bsize>:<assoc>,<rep>:<wr>:<alloc>:<wr_alloc>:<set_index_fn>,<mshr>:<N>:<merge>,<mq>:<fifo_entry>,<data_port_width> | none}
-gpgpu_gmem_skip_L1D                    0 # global memory access skip L1D cache (implements -Xptxas -dlcm=cg, default=no skip)
-gpgpu_perfect_mem                      0 # enable perfect memory mode (no cache miss)
-n_regfile_gating_group                    4 # group of lanes that should be read/written together)
-gpgpu_clock_gated_reg_file                    0 # enable clock gated reg file for power calculations
-gpgpu_clock_gated_lanes                    0 # enable clock gated lanes for power calculations
-gpgpu_shader_registers                65536 # Number of registers per shader core. Limits number of concurrent CTAs. (default 8192)
-gpgpu_registers_per_block                65536 # Maximum number of registers per CTA. (default 8192)
-gpgpu_ignore_resources_limitation                    0 # gpgpu_ignore_resources_limitation (default 0)
-gpgpu_shader_cta                      32 # Maximum number of concurrent CTAs in shader (default 32)
-gpgpu_num_cta_barriers                   16 # Maximum number of named barriers per CTA (default 16)
-gpgpu_n_clusters                      56 # number of processing clusters
-gpgpu_n_cores_per_cluster                    1 # number of simd cores per cluster
-gpgpu_n_cluster_ejection_buffer_size                   32 # number of packets in ejection buffer
-gpgpu_n_ldst_response_buffer_size                    2 # number of response packets in ld/st unit ejection buffer
-gpgpu_shmem_per_block                49152 # Size of shared memory per thread block or CTA (default 48kB)
-gpgpu_shmem_size                  167936 # Size of shared memory per shader core (default 16kB)
-gpgpu_shmem_option      0,8,16,32,64,164 # Option list of shared memory sizes
-gpgpu_unified_l1d_size                  192 # Size of unified data cache(L1D + shared memory) in KB
-gpgpu_adaptive_cache_config                    1 # adaptive_cache_config
-gpgpu_shmem_sizeDefault               167936 # Size of shared memory per shader core (default 16kB)
-gpgpu_shmem_size_PrefL1                16384 # Size of shared memory per shader core (default 16kB)
-gpgpu_shmem_size_PrefShared                16384 # Size of shared memory per shader core (default 16kB)
-gpgpu_shmem_num_banks                   32 # Number of banks in the shared memory in each shader core (default 16)
-gpgpu_shmem_limited_broadcast                    0 # Limit shared memory to do one broadcast per cycle (default on)
-gpgpu_shmem_warp_parts                    1 # Number of portions a warp is divided into for shared memory bank conflict check 
-gpgpu_mem_unit_ports                    1 # The number of memory transactions allowed per core cycle
-gpgpu_shmem_warp_parts                    1 # Number of portions a warp is divided into for shared memory bank conflict check 
-gpgpu_warpdistro_shader                   -1 # Specify which shader core to collect the warp size distribution from
-gpgpu_warp_issue_shader                    0 # Specify which shader core to collect the warp issue distribution from
-gpgpu_local_mem_map                    1 # Mapping from local memory space address to simulated GPU physical address space (default = enabled)
-gpgpu_num_reg_banks                   32 # Number of register banks (default = 8)
-gpgpu_reg_bank_use_warp_id                    0 # Use warp ID in mapping registers to banks (default = off)
-gpgpu_sub_core_model                    1 # Sub Core Volta/Pascal model (default = off)
-gpgpu_enable_specialized_operand_collector                    0 # enable_specialized_operand_collector
-gpgpu_operand_collector_num_units_sp                    4 # number of collector units (default = 4)
-gpgpu_operand_collector_num_units_dp                    0 # number of collector units (default = 0)
-gpgpu_operand_collector_num_units_sfu                    4 # number of collector units (default = 4)
-gpgpu_operand_collector_num_units_int                    0 # number of collector units (default = 0)
-gpgpu_operand_collector_num_units_tensor_core                    4 # number of collector units (default = 4)
-gpgpu_operand_collector_num_units_mem                    2 # number of collector units (default = 2)
-gpgpu_operand_collector_num_units_gen                    8 # number of collector units (default = 0)
-gpgpu_operand_collector_num_in_ports_sp                    1 # number of collector unit in ports (default = 1)
-gpgpu_operand_collector_num_in_ports_dp                    0 # number of collector unit in ports (default = 0)
-gpgpu_operand_collector_num_in_ports_sfu                    1 # number of collector unit in ports (default = 1)
-gpgpu_operand_collector_num_in_ports_int                    0 # number of collector unit in ports (default = 0)
-gpgpu_operand_collector_num_in_ports_tensor_core                    1 # number of collector unit in ports (default = 1)
-gpgpu_operand_collector_num_in_ports_mem                    1 # number of collector unit in ports (default = 1)
-gpgpu_operand_collector_num_in_ports_gen                    8 # number of collector unit in ports (default = 0)
-gpgpu_operand_collector_num_out_ports_sp                    1 # number of collector unit in ports (default = 1)
-gpgpu_operand_collector_num_out_ports_dp                    0 # number of collector unit in ports (default = 0)
-gpgpu_operand_collector_num_out_ports_sfu                    1 # number of collector unit in ports (default = 1)
-gpgpu_operand_collector_num_out_ports_int                    0 # number of collector unit in ports (default = 0)
-gpgpu_operand_collector_num_out_ports_tensor_core                    1 # number of collector unit in ports (default = 1)
-gpgpu_operand_collector_num_out_ports_mem                    1 # number of collector unit in ports (default = 1)
-gpgpu_operand_collector_num_out_ports_gen                    8 # number of collector unit in ports (default = 0)
-gpgpu_coalesce_arch                   80 # Coalescing arch (GT200 = 13, Fermi = 20)
-gpgpu_num_sched_per_core                    4 # Number of warp schedulers per core
-gpgpu_max_insn_issue_per_warp                    1 # Max number of instructions that can be issued per warp in one cycle by scheduler (either 1 or 2)
-gpgpu_dual_issue_diff_exec_units                    1 # should dual issue use two different execution unit resources (Default = 1)
-gpgpu_simt_core_sim_order                    1 # Select the simulation order of cores in a cluster (0=Fix, 1=Round-Robin)
-gpgpu_pipeline_widths 4,4,4,4,4,4,4,4,4,4,8,4,4 # Pipeline widths ID_OC_SP,ID_OC_DP,ID_OC_INT,ID_OC_SFU,ID_OC_MEM,OC_EX_SP,OC_EX_DP,OC_EX_INT,OC_EX_SFU,OC_EX_MEM,EX_WB,ID_OC_TENSOR_CORE,OC_EX_TENSOR_CORE
-gpgpu_tensor_core_avail                    1 # Tensor Core Available (default=0)
-gpgpu_num_sp_units                     4 # Number of SP units (default=1)
-gpgpu_num_dp_units                     4 # Number of DP units (default=0)
-gpgpu_num_int_units                    4 # Number of INT units (default=0)
-gpgpu_num_sfu_units                    4 # Number of SF units (default=1)
-gpgpu_num_tensor_core_units                    4 # Number of tensor_core units (default=1)
-gpgpu_num_mem_units                    1 # Number if ldst units (default=1) WARNING: not hooked up to anything
-gpgpu_scheduler                      gto # Scheduler configuration: < lrr | gto | two_level_active > If two_level_active:<num_active_warps>:<inner_prioritization>:<outer_prioritization>For complete list of prioritization values see shader.h enum scheduler_prioritization_typeDefault: gto
-gpgpu_concurrent_kernel_sm                    0 # Support concurrent kernels on a SM (default = disabled)
-gpgpu_perfect_inst_const_cache                    1 # perfect inst and const cache mode, so all inst and const hits in the cache(default = disabled)
-gpgpu_inst_fetch_throughput                    4 # the number of fetched intruction per warp each cycle
-gpgpu_reg_file_port_throughput                    2 # the number ports of the register file
-specialized_unit_1         1,4,4,4,4,BRA # specialized unit config {<enabled>,<num_units>:<latency>:<initiation>,<ID_OC_SPEC>:<OC_EX_SPEC>,<NAME>}
-specialized_unit_2       1,4,200,4,4,TEX # specialized unit config {<enabled>,<num_units>:<latency>:<initiation>,<ID_OC_SPEC>:<OC_EX_SPEC>,<NAME>}
-specialized_unit_3     1,4,12,4,4,TENSOR # specialized unit config {<enabled>,<num_units>:<latency>:<initiation>,<ID_OC_SPEC>:<OC_EX_SPEC>,<NAME>}
-specialized_unit_4         1,4,4,4,4,UDP # specialized unit config {<enabled>,<num_units>:<latency>:<initiation>,<ID_OC_SPEC>:<OC_EX_SPEC>,<NAME>}
-specialized_unit_5         0,4,4,4,4,BRA # specialized unit config {<enabled>,<num_units>:<latency>:<initiation>,<ID_OC_SPEC>:<OC_EX_SPEC>,<NAME>}
-specialized_unit_6         0,4,4,4,4,BRA # specialized unit config {<enabled>,<num_units>:<latency>:<initiation>,<ID_OC_SPEC>:<OC_EX_SPEC>,<NAME>}
-specialized_unit_7         0,4,4,4,4,BRA # specialized unit config {<enabled>,<num_units>:<latency>:<initiation>,<ID_OC_SPEC>:<OC_EX_SPEC>,<NAME>}
-specialized_unit_8         0,4,4,4,4,BRA # specialized unit config {<enabled>,<num_units>:<latency>:<initiation>,<ID_OC_SPEC>:<OC_EX_SPEC>,<NAME>}
-gpgpu_perf_sim_memcpy                    1 # Fill the L2 cache on memcpy
-gpgpu_simple_dram_model                    0 # simple_dram_model with fixed latency and BW
-gpgpu_dram_scheduler                    1 # 0 = fifo, 1 = FR-FCFS (defaul)
-gpgpu_dram_partition_queues          64:64:64:64 # i2$:$2d:d2$:$2i
-l2_ideal                               0 # Use a ideal L2 cache that always hit
-gpgpu_cache:dl2     S:256:128:16,L:B:m:L:X,A:192:4,32:0,32 # unified banked L2 data cache config  {<sector?>:<nsets>:<bsize>:<assoc>,<rep>:<wr>:<alloc>:<wr_alloc>:<set_index_fn>,<mshr>:<N>:<merge>,<mq>:<fifo_entry>,<data_port_width>
-gpgpu_cache:dl2_texture_only                    0 # L2 cache used for texture only
-gpgpu_n_mem                           24 # number of memory modules (e.g. memory controllers) in gpu
-gpgpu_n_sub_partition_per_mchannel                    2 # number of memory subpartition in each memory module
-gpgpu_n_mem_per_ctrlr                    1 # number of memory chips per memory controller
-gpgpu_memlatency_stat                   14 # track and display latency statistics 0x2 enables MC, 0x4 enables queue logs
-gpgpu_frfcfs_dram_sched_queue_size                   64 # 0 = unlimited (default); # entries per chip
-gpgpu_dram_return_queue_size                  226 # 0 = unlimited (default); # entries per chip
-gpgpu_dram_buswidth                   16 # default = 4 bytes (8 bytes per cycle at DDR)
-gpgpu_dram_burst_length                    2 # Burst length of each DRAM request (default = 4 data bus cycle)
-dram_data_command_freq_ratio                    2 # Frequency ratio between DRAM data bus and command bus (default = 2 times, i.e. DDR)
-gpgpu_dram_timing_opt nbk=16:CCD=1:RRD=5:RCD=17:RAS=45:RP=19:RC=64:CL=19:WL=6:CDLR=4:WR=19:nbkgrp=4:CCDL=3:RTPL=5 # DRAM timing parameters = {nbk:tCCD:tRRD:tRCD:tRAS:tRP:tRC:CL:WL:tCDLR:tWR:nbkgrp:tCCDL:tRTPL}
-gpgpu_l2_rop_latency                  192 # ROP queue latency (default 85)
-dram_latency                         164 # DRAM latency (default 30)
-dram_dual_bus_interface                    1 # dual_bus_interface (default = 0) 
-dram_bnk_indexing_policy                    0 # dram_bnk_indexing_policy (0 = normal indexing, 1 = Xoring with the higher bits) (Default = 0)
-dram_bnkgrp_indexing_policy                    1 # dram_bnkgrp_indexing_policy (0 = take higher bits, 1 = take lower bits) (Default = 0)
-dram_seperate_write_queue_enable                    0 # Seperate_Write_Queue_Enable
-dram_write_queue_size             32:28:16 # Write_Queue_Size
-dram_elimnate_rw_turnaround                    0 # elimnate_rw_turnaround i.e set tWTR and tRTW = 0
-icnt_flit_size                        40 # icnt_flit_size
-SST_mode                               0 # SST mode
-gpgpu_mem_addr_mapping dramid@8;00000000.00000000.00000000.00000000.0000RRRR.RRRRRRRR.RBBBCCCC.BCCSSSSS # mapping memory address to dram model {dramid@<start bit>;<memory address map>}
-gpgpu_mem_addr_test                    0 # run sweep test to check address mapping for aliased address
-gpgpu_mem_address_mask                    1 # 0 = old addressing mask, 1 = new addressing mask, 2 = new add. mask + flipped bank sel and chip sel bits
-gpgpu_memory_partition_indexing                    0 # 0 = no indexing, 1 = bitwise xoring, 2 = IPoly, 3 = custom indexing
-accelwattch_xml_file accelwattch_sass_sim.xml # AccelWattch XML file
-power_simulation_enabled                    0 # Turn on power simulator (1=On, 0=Off)
-power_per_cycle_dump                    0 # Dump detailed power output each cycle
-hw_perf_file_name            hw_perf.csv # Hardware Performance Statistics file
-hw_perf_bench_name                       # Kernel Name in Hardware Performance Statistics file
-power_simulation_mode                    0 # Switch performance counter input for power simulation (0=Sim, 1=HW, 2=HW-Sim Hybrid)
-dvfs_enabled                           0 # Turn on DVFS for power model
-aggregate_power_stats                    0 # Accumulate power across all kernels
-accelwattch_hybrid_perfsim_L1_RH                    0 # Get L1 Read Hits for Accelwattch-Hybrid from Accel-Sim
-accelwattch_hybrid_perfsim_L1_RM                    0 # Get L1 Read Misses for Accelwattch-Hybrid from Accel-Sim
-accelwattch_hybrid_perfsim_L1_WH                    0 # Get L1 Write Hits for Accelwattch-Hybrid from Accel-Sim
-accelwattch_hybrid_perfsim_L1_WM                    0 # Get L1 Write Misses for Accelwattch-Hybrid from Accel-Sim
-accelwattch_hybrid_perfsim_L2_RH                    0 # Get L2 Read Hits for Accelwattch-Hybrid from Accel-Sim
-accelwattch_hybrid_perfsim_L2_RM                    0 # Get L2 Read Misses for Accelwattch-Hybrid from Accel-Sim
-accelwattch_hybrid_perfsim_L2_WH                    0 # Get L2 Write Hits for Accelwattch-Hybrid from Accel-Sim
-accelwattch_hybrid_perfsim_L2_WM                    0 # Get L2 Write Misses for Accelwattch-Hybrid from Accel-Sim
-accelwattch_hybrid_perfsim_CC_ACC                    0 # Get Constant Cache Acesses for Accelwattch-Hybrid from Accel-Sim
-accelwattch_hybrid_perfsim_SHARED_ACC                    0 # Get Shared Memory Acesses for Accelwattch-Hybrid from Accel-Sim
-accelwattch_hybrid_perfsim_DRAM_RD                    0 # Get DRAM Reads for Accelwattch-Hybrid from Accel-Sim
-accelwattch_hybrid_perfsim_DRAM_WR                    0 # Get DRAM Writes for Accelwattch-Hybrid from Accel-Sim
-accelwattch_hybrid_perfsim_NOC                    0 # Get Interconnect Acesses for Accelwattch-Hybrid from Accel-Sim
-accelwattch_hybrid_perfsim_PIPE_DUTY                    0 # Get Pipeline Duty Cycle Acesses for Accelwattch-Hybrid from Accel-Sim
-accelwattch_hybrid_perfsim_NUM_SM_IDLE                    0 # Get Number of Idle SMs for Accelwattch-Hybrid from Accel-Sim
-accelwattch_hybrid_perfsim_CYCLES                    0 # Get Executed Cycles for Accelwattch-Hybrid from Accel-Sim
-accelwattch_hybrid_perfsim_VOLTAGE                    0 # Get Chip Voltage for Accelwattch-Hybrid from Accel-Sim
-power_trace_enabled                    0 # produce a file for the power trace (1=On, 0=Off)
-power_trace_zlevel                     6 # Compression level of the power trace output log (0=no comp, 9=highest)
-steady_power_levels_enabled                    0 # produce a file for the steady power levels (1=On, 0=Off)
-steady_state_definition                  8:4 # allowed deviation:number of samples
-gpgpu_max_cycle                        0 # terminates gpu simulation early (0 = no limit)
-gpgpu_max_insn                         0 # terminates gpu simulation early (0 = no limit)
-gpgpu_max_cta                          0 # terminates gpu simulation early (0 = no limit)
-gpgpu_max_completed_cta                    0 # terminates gpu simulation early (0 = no limit)
-gpgpu_runtime_stat                   500 # display runtime statistics such as dram utilization {<freq>:<flag>}
-liveness_message_freq                    1 # Minimum number of seconds between simulation liveness messages (0 = always print)
-gpgpu_compute_capability_major                    8 # Major compute capability version number
-gpgpu_compute_capability_minor                    0 # Minor compute capability version number
-gpgpu_flush_l1_cache                    1 # Flush L1 cache at the end of each kernel call
-gpgpu_flush_l2_cache                    0 # Flush L2 cache at the end of each kernel call
-gpgpu_deadlock_detect                    1 # Stop the simulation at deadlock (1=on (default), 0=off)
-gpgpu_ptx_instruction_classification                    0 # if enabled will classify ptx instruction types per kernel (Max 255 kernels now)
-gpgpu_ptx_sim_mode                     0 # Select between Performance (default) or Functional simulation (1)
-gpgpu_clock_domains  1440:1440:1440:1215 # Clock Domain Frequencies in MhZ {<Core Clock>:<ICNT Clock>:<L2 Clock>:<DRAM Clock>}
-gpgpu_max_concurrent_kernel                   32 # maximum kernels that can run concurrently on GPU, set this value according to max resident grids for your compute capability
-gpgpu_cflog_interval                    0 # Interval between each snapshot in control flow logger
-visualizer_enabled                     0 # Turn on visualizer output (1=On, 0=Off)
-visualizer_outputfile                 NULL # Specifies the output log file for visualizer
-visualizer_zlevel                      6 # Compression level of the visualizer output log (0=no comp, 9=highest)
-gpgpu_stack_size_limit                 1024 # GPU thread stack size
-gpgpu_heap_size_limit              8388608 # GPU malloc heap size 
-gpgpu_runtime_sync_depth_limit                    2 # GPU device runtime synchronize depth
-gpgpu_runtime_pending_launch_count_limit                 2048 # GPU device runtime pending launch count
-trace_enabled                          0 # Turn on traces
-trace_components                    none # comma seperated list of traces to enable. Complete list found in trace_streams.tup. Default none
-trace_sampling_core                    0 # The core which is printed using CORE_DPRINTF. Default 0
-trace_sampling_memory_partition                   -1 # The memory partition which is printed using MEMPART_DPRINTF. Default -1 (i.e. all)
-enable_ptx_file_line_stats                    1 # Turn on PTX source line statistic profiling. (1 = On)
-ptx_line_stats_filename gpgpu_inst_stats.txt # Output file for PTX source line statistics.
-gpgpu_kernel_launch_latency                 9488 # Kernel launch latency in cycles. Default: 0
-gpgpu_cdp_enabled                      0 # Turn on CDP
-gpgpu_TB_launch_latency                    0 # thread block launch latency in cycles. Default: 0
-trace               /spapad/accel-sim-clean/sim_run_11.1/backprop-rodinia-3.1/65536/A30_MIG_4g.24gb-Accelwattch_SASS_SIM/traces/kernelslist.g # traces kernel filetraces kernel file directory
-trace_opcode_latency_initiation_int                  4,2 # Opcode latencies and initiation for integers in trace driven mode <latency,initiation>
-trace_opcode_latency_initiation_sp                  4,2 # Opcode latencies and initiation for sp in trace driven mode <latency,initiation>
-trace_opcode_latency_initiation_dp                  6,4 # Opcode latencies and initiation for dp in trace driven mode <latency,initiation>
-trace_opcode_latency_initiation_sfu                 21,8 # Opcode latencies and initiation for sfu in trace driven mode <latency,initiation>
-trace_opcode_latency_initiation_tensor                 12,8 # Opcode latencies and initiation for tensor in trace driven mode <latency,initiation>
-trace_opcode_latency_initiation_spec_op_1                  4,4 # specialized unit config <latency,initiation>
-trace_opcode_latency_initiation_spec_op_2                200,4 # specialized unit config <latency,initiation>
-trace_opcode_latency_initiation_spec_op_3                 12,8 # specialized unit config <latency,initiation>
-trace_opcode_latency_initiation_spec_op_4                  4,1 # specialized unit config <latency,initiation>
-trace_opcode_latency_initiation_spec_op_5                  4,4 # specialized unit config <latency,initiation>
-trace_opcode_latency_initiation_spec_op_6                  4,4 # specialized unit config <latency,initiation>
-trace_opcode_latency_initiation_spec_op_7                  4,4 # specialized unit config <latency,initiation>
-trace_opcode_latency_initiation_spec_op_8                  4,4 # specialized unit config <latency,initiation>
DRAM Timing Options:
nbk                                    16 # number of banks
CCD                                     1 # column to column delay
RRD                                     5 # minimal delay between activation of rows in different banks
RCD                                    17 # row to column delay
RAS                                    45 # time needed to activate row
RP                                     19 # time needed to precharge (deactivate) row
RC                                     64 # row cycle time
CDLR                                    4 # switching from write to read (changes tWTR)
WR                                     19 # last data-in to row precharge
CL                                     19 # CAS latency
WL                                      6 # Write latency
nbkgrp                                  4 # number of bank groups
CCDL                                    3 # column to column delay between accesses to different bank groups
RTPL                                    5 # read to precharge delay between accesses to different bank groups
Total number of memory sub partition = 48
addr_dec_mask[CHIP]  = 0000000000000000 	high:64 low:0
addr_dec_mask[BK]    = 0000000000007080 	high:15 low:7
addr_dec_mask[ROW]   = 000000000fff8000 	high:28 low:15
addr_dec_mask[COL]   = 0000000000000f7f 	high:12 low:0
addr_dec_mask[BURST] = 000000000000001f 	high:5 low:0
sub_partition_id_mask = 0000000000000080
GPGPU-Sim uArch: clock freqs: 1440000000.000000:1440000000.000000:1440000000.000000:1215000000.000000
GPGPU-Sim uArch: clock periods: 0.00000000069444444444:0.00000000069444444444:0.00000000069444444444:0.00000000082304526749
*** Initializing Memory Statistics ***
GPGPU-Sim uArch: performance model initialization complete.
launching memcpy command : MemcpyHtoD,0x00007fa9cca00000,262148
launching memcpy command : MemcpyHtoD,0x00007fa9ccc00000,4456516
Processing kernel /spapad/accel-sim-clean/sim_run_11.1/backprop-rodinia-3.1/65536/A30_MIG_4g.24gb-Accelwattch_SASS_SIM/traces/kernel-1-ctx_0x56237acb3f90.traceg.xz
-kernel name = _Z22bpnn_layerforward_CUDAPfS_S_S_ii
-kernel id = 1
-grid dim = (1,4096,1)
-block dim = (16,16,1)
-shmem = 1088
-nregs = 21
-binary version = 80
-cuda stream id = 0
-shmem base_addr = 0x00007fa9fd000000
-local mem base_addr = 0x00007fa9fb000000
-nvbit version = 1.7.6
-accelsim tracer version = 5
-enable lineinfo = 0
Header info loaded for kernel command : /spapad/accel-sim-clean/sim_run_11.1/backprop-rodinia-3.1/65536/A30_MIG_4g.24gb-Accelwattch_SASS_SIM/traces/kernel-1-ctx_0x56237acb3f90.traceg.xz
launching kernel name: _Z22bpnn_layerforward_CUDAPfS_S_S_ii uid: 1 cuda_stream_id: 0
GPGPU-Sim uArch: Shader 0 bind to kernel 1 '_Z22bpnn_layerforward_CUDAPfS_S_S_ii'
GPGPU-Sim uArch: CTA/core = 8, limited by: threads
GPGPU-Sim: Reconfigure L1 cache to 176KB
thread block = 0,0,0
GPGPU-Sim uArch: Shader 1 bind to kernel 1 '_Z22bpnn_layerforward_CUDAPfS_S_S_ii'
thread block = 0,1,0
GPGPU-Sim uArch: Shader 2 bind to kernel 1 '_Z22bpnn_layerforward_CUDAPfS_S_S_ii'
thread block = 0,2,0
GPGPU-Sim uArch: Shader 3 bind to kernel 1 '_Z22bpnn_layerforward_CUDAPfS_S_S_ii'
thread block = 0,3,0
GPGPU-Sim uArch: Shader 4 bind to kernel 1 '_Z22bpnn_layerforward_CUDAPfS_S_S_ii'
thread block = 0,4,0
GPGPU-Sim uArch: Shader 5 bind to kernel 1 '_Z22bpnn_layerforward_CUDAPfS_S_S_ii'
thread block = 0,5,0
GPGPU-Sim uArch: Shader 6 bind to kernel 1 '_Z22bpnn_layerforward_CUDAPfS_S_S_ii'
thread block = 0,6,0
GPGPU-Sim uArch: Shader 7 bind to kernel 1 '_Z22bpnn_layerforward_CUDAPfS_S_S_ii'
thread block = 0,7,0
GPGPU-Sim uArch: Shader 8 bind to kernel 1 '_Z22bpnn_layerforward_CUDAPfS_S_S_ii'
thread block = 0,8,0
GPGPU-Sim uArch: Shader 9 bind to kernel 1 '_Z22bpnn_layerforward_CUDAPfS_S_S_ii'
thread block = 0,9,0
GPGPU-Sim uArch: Shader 10 bind to kernel 1 '_Z22bpnn_layerforward_CUDAPfS_S_S_ii'
thread block = 0,10,0
GPGPU-Sim uArch: Shader 11 bind to kernel 1 '_Z22bpnn_layerforward_CUDAPfS_S_S_ii'
thread block = 0,11,0
GPGPU-Sim uArch: Shader 12 bind to kernel 1 '_Z22bpnn_layerforward_CUDAPfS_S_S_ii'
thread block = 0,12,0
GPGPU-Sim uArch: Shader 13 bind to kernel 1 '_Z22bpnn_layerforward_CUDAPfS_S_S_ii'
thread block = 0,13,0
GPGPU-Sim uArch: Shader 14 bind to kernel 1 '_Z22bpnn_layerforward_CUDAPfS_S_S_ii'
thread block = 0,14,0
GPGPU-Sim uArch: Shader 15 bind to kernel 1 '_Z22bpnn_layerforward_CUDAPfS_S_S_ii'
thread block = 0,15,0
GPGPU-Sim uArch: Shader 16 bind to kernel 1 '_Z22bpnn_layerforward_CUDAPfS_S_S_ii'
thread block = 0,16,0
GPGPU-Sim uArch: Shader 17 bind to kernel 1 '_Z22bpnn_layerforward_CUDAPfS_S_S_ii'
thread block = 0,17,0
GPGPU-Sim uArch: Shader 18 bind to kernel 1 '_Z22bpnn_layerforward_CUDAPfS_S_S_ii'
thread block = 0,18,0
GPGPU-Sim uArch: Shader 19 bind to kernel 1 '_Z22bpnn_layerforward_CUDAPfS_S_S_ii'
thread block = 0,19,0
GPGPU-Sim uArch: Shader 20 bind to kernel 1 '_Z22bpnn_layerforward_CUDAPfS_S_S_ii'
thread block = 0,20,0
GPGPU-Sim uArch: Shader 21 bind to kernel 1 '_Z22bpnn_layerforward_CUDAPfS_S_S_ii'
thread block = 0,21,0
GPGPU-Sim uArch: Shader 22 bind to kernel 1 '_Z22bpnn_layerforward_CUDAPfS_S_S_ii'
thread block = 0,22,0
GPGPU-Sim uArch: Shader 23 bind to kernel 1 '_Z22bpnn_layerforward_CUDAPfS_S_S_ii'
thread block = 0,23,0
GPGPU-Sim uArch: Shader 24 bind to kernel 1 '_Z22bpnn_layerforward_CUDAPfS_S_S_ii'
thread block = 0,24,0
GPGPU-Sim uArch: Shader 25 bind to kernel 1 '_Z22bpnn_layerforward_CUDAPfS_S_S_ii'
thread block = 0,25,0
GPGPU-Sim uArch: Shader 26 bind to kernel 1 '_Z22bpnn_layerforward_CUDAPfS_S_S_ii'
thread block = 0,26,0
GPGPU-Sim uArch: Shader 27 bind to kernel 1 '_Z22bpnn_layerforward_CUDAPfS_S_S_ii'
thread block = 0,27,0
GPGPU-Sim uArch: Shader 28 bind to kernel 1 '_Z22bpnn_layerforward_CUDAPfS_S_S_ii'
thread block = 0,28,0
GPGPU-Sim uArch: Shader 29 bind to kernel 1 '_Z22bpnn_layerforward_CUDAPfS_S_S_ii'
thread block = 0,29,0
GPGPU-Sim uArch: Shader 30 bind to kernel 1 '_Z22bpnn_layerforward_CUDAPfS_S_S_ii'
thread block = 0,30,0
GPGPU-Sim uArch: Shader 31 bind to kernel 1 '_Z22bpnn_layerforward_CUDAPfS_S_S_ii'
thread block = 0,31,0
GPGPU-Sim uArch: Shader 32 bind to kernel 1 '_Z22bpnn_layerforward_CUDAPfS_S_S_ii'
thread block = 0,32,0
GPGPU-Sim uArch: Shader 33 bind to kernel 1 '_Z22bpnn_layerforward_CUDAPfS_S_S_ii'
thread block = 0,33,0
GPGPU-Sim uArch: Shader 34 bind to kernel 1 '_Z22bpnn_layerforward_CUDAPfS_S_S_ii'
thread block = 0,34,0
GPGPU-Sim uArch: Shader 35 bind to kernel 1 '_Z22bpnn_layerforward_CUDAPfS_S_S_ii'
thread block = 0,35,0
GPGPU-Sim uArch: Shader 36 bind to kernel 1 '_Z22bpnn_layerforward_CUDAPfS_S_S_ii'
thread block = 0,36,0
GPGPU-Sim uArch: Shader 37 bind to kernel 1 '_Z22bpnn_layerforward_CUDAPfS_S_S_ii'
thread block = 0,37,0
GPGPU-Sim uArch: Shader 38 bind to kernel 1 '_Z22bpnn_layerforward_CUDAPfS_S_S_ii'
thread block = 0,38,0
GPGPU-Sim uArch: Shader 39 bind to kernel 1 '_Z22bpnn_layerforward_CUDAPfS_S_S_ii'
thread block = 0,39,0
GPGPU-Sim uArch: Shader 40 bind to kernel 1 '_Z22bpnn_layerforward_CUDAPfS_S_S_ii'
thread block = 0,40,0
GPGPU-Sim uArch: Shader 41 bind to kernel 1 '_Z22bpnn_layerforward_CUDAPfS_S_S_ii'
thread block = 0,41,0
GPGPU-Sim uArch: Shader 42 bind to kernel 1 '_Z22bpnn_layerforward_CUDAPfS_S_S_ii'
thread block = 0,42,0
GPGPU-Sim uArch: Shader 43 bind to kernel 1 '_Z22bpnn_layerforward_CUDAPfS_S_S_ii'
thread block = 0,43,0
GPGPU-Sim uArch: Shader 44 bind to kernel 1 '_Z22bpnn_layerforward_CUDAPfS_S_S_ii'
thread block = 0,44,0
GPGPU-Sim uArch: Shader 45 bind to kernel 1 '_Z22bpnn_layerforward_CUDAPfS_S_S_ii'
thread block = 0,45,0
GPGPU-Sim uArch: Shader 46 bind to kernel 1 '_Z22bpnn_layerforward_CUDAPfS_S_S_ii'
thread block = 0,46,0
GPGPU-Sim uArch: Shader 47 bind to kernel 1 '_Z22bpnn_layerforward_CUDAPfS_S_S_ii'
thread block = 0,47,0
GPGPU-Sim uArch: Shader 48 bind to kernel 1 '_Z22bpnn_layerforward_CUDAPfS_S_S_ii'
thread block = 0,48,0
GPGPU-Sim uArch: Shader 49 bind to kernel 1 '_Z22bpnn_layerforward_CUDAPfS_S_S_ii'
thread block = 0,49,0
GPGPU-Sim uArch: Shader 50 bind to kernel 1 '_Z22bpnn_layerforward_CUDAPfS_S_S_ii'
thread block = 0,50,0
GPGPU-Sim uArch: Shader 51 bind to kernel 1 '_Z22bpnn_layerforward_CUDAPfS_S_S_ii'
thread block = 0,51,0
GPGPU-Sim uArch: Shader 52 bind to kernel 1 '_Z22bpnn_layerforward_CUDAPfS_S_S_ii'
thread block = 0,52,0
GPGPU-Sim uArch: Shader 53 bind to kernel 1 '_Z22bpnn_layerforward_CUDAPfS_S_S_ii'
thread block = 0,53,0
GPGPU-Sim uArch: Shader 54 bind to kernel 1 '_Z22bpnn_layerforward_CUDAPfS_S_S_ii'
thread block = 0,54,0
GPGPU-Sim uArch: Shader 55 bind to kernel 1 '_Z22bpnn_layerforward_CUDAPfS_S_S_ii'
thread block = 0,55,0
thread block = 0,56,0
thread block = 0,57,0
thread block = 0,58,0
thread block = 0,59,0
thread block = 0,60,0
thread block = 0,61,0
thread block = 0,62,0
thread block = 0,63,0
thread block = 0,64,0
thread block = 0,65,0
thread block = 0,66,0
thread block = 0,67,0
thread block = 0,68,0
thread block = 0,69,0
thread block = 0,70,0
thread block = 0,71,0
thread block = 0,72,0
thread block = 0,73,0
thread block = 0,74,0
thread block = 0,75,0
thread block = 0,76,0
thread block = 0,77,0
thread block = 0,78,0
thread block = 0,79,0
thread block = 0,80,0
thread block = 0,81,0
thread block = 0,82,0
thread block = 0,83,0
thread block = 0,84,0
thread block = 0,85,0
thread block = 0,86,0
thread block = 0,87,0
thread block = 0,88,0
thread block = 0,89,0
thread block = 0,90,0
thread block = 0,91,0
thread block = 0,92,0
thread block = 0,93,0
thread block = 0,94,0
thread block = 0,95,0
thread block = 0,96,0
thread block = 0,97,0
thread block = 0,98,0
thread block = 0,99,0
thread block = 0,100,0
thread block = 0,101,0
thread block = 0,102,0
thread block = 0,103,0
thread block = 0,104,0
thread block = 0,105,0
thread block = 0,106,0
thread block = 0,107,0
thread block = 0,108,0
thread block = 0,109,0
thread block = 0,110,0
thread block = 0,111,0
thread block = 0,112,0
thread block = 0,113,0
thread block = 0,114,0
thread block = 0,115,0
thread block = 0,116,0
thread block = 0,117,0
thread block = 0,118,0
thread block = 0,119,0
thread block = 0,120,0
thread block = 0,121,0
thread block = 0,122,0
thread block = 0,123,0
thread block = 0,124,0
thread block = 0,125,0
thread block = 0,126,0
thread block = 0,127,0
thread block = 0,128,0
thread block = 0,129,0
thread block = 0,130,0
thread block = 0,131,0
thread block = 0,132,0
thread block = 0,133,0
thread block = 0,134,0
thread block = 0,135,0
thread block = 0,136,0
thread block = 0,137,0
thread block = 0,138,0
thread block = 0,139,0
thread block = 0,140,0
thread block = 0,141,0
thread block = 0,142,0
thread block = 0,143,0
thread block = 0,144,0
thread block = 0,145,0
thread block = 0,146,0
thread block = 0,147,0
thread block = 0,148,0
thread block = 0,149,0
thread block = 0,150,0
thread block = 0,151,0
thread block = 0,152,0
thread block = 0,153,0
thread block = 0,154,0
thread block = 0,155,0
thread block = 0,156,0
thread block = 0,157,0
thread block = 0,158,0
thread block = 0,159,0
thread block = 0,160,0
thread block = 0,161,0
thread block = 0,162,0
thread block = 0,163,0
thread block = 0,164,0
thread block = 0,165,0
thread block = 0,166,0
thread block = 0,167,0
thread block = 0,168,0
thread block = 0,169,0
thread block = 0,170,0
thread block = 0,171,0
thread block = 0,172,0
thread block = 0,173,0
thread block = 0,174,0
thread block = 0,175,0
thread block = 0,176,0
thread block = 0,177,0
thread block = 0,178,0
thread block = 0,179,0
thread block = 0,180,0
thread block = 0,181,0
thread block = 0,182,0
thread block = 0,183,0
thread block = 0,184,0
thread block = 0,185,0
thread block = 0,186,0
thread block = 0,187,0
thread block = 0,188,0
thread block = 0,189,0
thread block = 0,190,0
thread block = 0,191,0
thread block = 0,192,0
thread block = 0,193,0
thread block = 0,194,0
thread block = 0,195,0
thread block = 0,196,0
thread block = 0,197,0
thread block = 0,198,0
thread block = 0,199,0
thread block = 0,200,0
thread block = 0,201,0
thread block = 0,202,0
thread block = 0,203,0
thread block = 0,204,0
thread block = 0,205,0
thread block = 0,206,0
thread block = 0,207,0
thread block = 0,208,0
thread block = 0,209,0
thread block = 0,210,0
thread block = 0,211,0
thread block = 0,212,0
thread block = 0,213,0
thread block = 0,214,0
thread block = 0,215,0
thread block = 0,216,0
thread block = 0,217,0
thread block = 0,218,0
thread block = 0,219,0
thread block = 0,220,0
thread block = 0,221,0
thread block = 0,222,0
thread block = 0,223,0
thread block = 0,224,0
thread block = 0,225,0
thread block = 0,226,0
thread block = 0,227,0
thread block = 0,228,0
thread block = 0,229,0
thread block = 0,230,0
thread block = 0,231,0
thread block = 0,232,0
thread block = 0,233,0
thread block = 0,234,0
thread block = 0,235,0
thread block = 0,236,0
thread block = 0,237,0
thread block = 0,238,0
thread block = 0,239,0
thread block = 0,240,0
thread block = 0,241,0
thread block = 0,242,0
thread block = 0,243,0
thread block = 0,244,0
thread block = 0,245,0
thread block = 0,246,0
thread block = 0,247,0
thread block = 0,248,0
thread block = 0,249,0
thread block = 0,250,0
thread block = 0,251,0
thread block = 0,252,0
thread block = 0,253,0
thread block = 0,254,0
thread block = 0,255,0
thread block = 0,256,0
thread block = 0,257,0
thread block = 0,258,0
thread block = 0,259,0
thread block = 0,260,0
thread block = 0,261,0
thread block = 0,262,0
thread block = 0,263,0
thread block = 0,264,0
thread block = 0,265,0
thread block = 0,266,0
thread block = 0,267,0
thread block = 0,268,0
thread block = 0,269,0
thread block = 0,270,0
thread block = 0,271,0
thread block = 0,272,0
thread block = 0,273,0
thread block = 0,274,0
thread block = 0,275,0
thread block = 0,276,0
thread block = 0,277,0
thread block = 0,278,0
thread block = 0,279,0
thread block = 0,280,0
thread block = 0,281,0
thread block = 0,282,0
thread block = 0,283,0
thread block = 0,284,0
thread block = 0,285,0
thread block = 0,286,0
thread block = 0,287,0
thread block = 0,288,0
thread block = 0,289,0
thread block = 0,290,0
thread block = 0,291,0
thread block = 0,292,0
thread block = 0,293,0
thread block = 0,294,0
thread block = 0,295,0
thread block = 0,296,0
thread block = 0,297,0
thread block = 0,298,0
thread block = 0,299,0
thread block = 0,300,0
thread block = 0,301,0
thread block = 0,302,0
thread block = 0,303,0
thread block = 0,304,0
thread block = 0,305,0
thread block = 0,306,0
thread block = 0,307,0
thread block = 0,308,0
thread block = 0,309,0
thread block = 0,310,0
thread block = 0,311,0
thread block = 0,312,0
thread block = 0,313,0
thread block = 0,314,0
thread block = 0,315,0
thread block = 0,316,0
thread block = 0,317,0
thread block = 0,318,0
thread block = 0,319,0
thread block = 0,320,0
thread block = 0,321,0
thread block = 0,322,0
thread block = 0,323,0
thread block = 0,324,0
thread block = 0,325,0
thread block = 0,326,0
thread block = 0,327,0
thread block = 0,328,0
thread block = 0,329,0
thread block = 0,330,0
thread block = 0,331,0
thread block = 0,332,0
thread block = 0,333,0
thread block = 0,334,0
thread block = 0,335,0
thread block = 0,336,0
thread block = 0,337,0
thread block = 0,338,0
thread block = 0,339,0
thread block = 0,340,0
thread block = 0,341,0
thread block = 0,342,0
thread block = 0,343,0
thread block = 0,344,0
thread block = 0,345,0
thread block = 0,346,0
thread block = 0,347,0
thread block = 0,348,0
thread block = 0,349,0
thread block = 0,350,0
thread block = 0,351,0
thread block = 0,352,0
thread block = 0,353,0
thread block = 0,354,0
thread block = 0,355,0
thread block = 0,356,0
thread block = 0,357,0
thread block = 0,358,0
thread block = 0,359,0
thread block = 0,360,0
thread block = 0,361,0
thread block = 0,362,0
thread block = 0,363,0
thread block = 0,364,0
thread block = 0,365,0
thread block = 0,366,0
thread block = 0,367,0
thread block = 0,368,0
thread block = 0,369,0
thread block = 0,370,0
thread block = 0,371,0
thread block = 0,372,0
thread block = 0,373,0
thread block = 0,374,0
thread block = 0,375,0
thread block = 0,376,0
thread block = 0,377,0
thread block = 0,378,0
thread block = 0,379,0
thread block = 0,380,0
thread block = 0,381,0
thread block = 0,382,0
thread block = 0,383,0
thread block = 0,384,0
thread block = 0,385,0
thread block = 0,386,0
thread block = 0,387,0
thread block = 0,388,0
thread block = 0,389,0
thread block = 0,390,0
thread block = 0,391,0
thread block = 0,392,0
thread block = 0,393,0
thread block = 0,394,0
thread block = 0,395,0
thread block = 0,396,0
thread block = 0,397,0
thread block = 0,398,0
thread block = 0,399,0
thread block = 0,400,0
thread block = 0,401,0
thread block = 0,402,0
thread block = 0,403,0
thread block = 0,404,0
thread block = 0,405,0
thread block = 0,406,0
thread block = 0,407,0
thread block = 0,408,0
thread block = 0,409,0
thread block = 0,410,0
thread block = 0,411,0
thread block = 0,412,0
thread block = 0,413,0
thread block = 0,414,0
thread block = 0,415,0
thread block = 0,416,0
thread block = 0,417,0
thread block = 0,418,0
thread block = 0,419,0
thread block = 0,420,0
thread block = 0,421,0
thread block = 0,422,0
thread block = 0,423,0
thread block = 0,424,0
thread block = 0,425,0
thread block = 0,426,0
thread block = 0,427,0
thread block = 0,428,0
thread block = 0,429,0
thread block = 0,430,0
thread block = 0,431,0
thread block = 0,432,0
thread block = 0,433,0
thread block = 0,434,0
thread block = 0,435,0
thread block = 0,436,0
thread block = 0,437,0
thread block = 0,438,0
thread block = 0,439,0
thread block = 0,440,0
thread block = 0,441,0
thread block = 0,442,0
thread block = 0,443,0
thread block = 0,444,0
thread block = 0,445,0
thread block = 0,446,0
thread block = 0,447,0
thread block = 0,448,0
thread block = 0,449,0
thread block = 0,450,0
thread block = 0,451,0
thread block = 0,452,0
thread block = 0,453,0
thread block = 0,454,0
thread block = 0,455,0
thread block = 0,456,0
thread block = 0,457,0
thread block = 0,458,0
thread block = 0,459,0
thread block = 0,460,0
thread block = 0,461,0
thread block = 0,462,0
thread block = 0,463,0
thread block = 0,464,0
thread block = 0,465,0
thread block = 0,466,0
thread block = 0,467,0
thread block = 0,468,0
thread block = 0,469,0
thread block = 0,470,0
thread block = 0,471,0
thread block = 0,472,0
thread block = 0,473,0
thread block = 0,474,0
thread block = 0,475,0
thread block = 0,476,0
thread block = 0,477,0
thread block = 0,478,0
thread block = 0,479,0
thread block = 0,480,0
thread block = 0,481,0
thread block = 0,482,0
thread block = 0,483,0
thread block = 0,484,0
thread block = 0,485,0
thread block = 0,486,0
thread block = 0,487,0
thread block = 0,488,0
thread block = 0,489,0
thread block = 0,490,0
thread block = 0,491,0
thread block = 0,492,0
thread block = 0,493,0
thread block = 0,494,0
thread block = 0,495,0
thread block = 0,496,0
thread block = 0,497,0
thread block = 0,498,0
thread block = 0,499,0
thread block = 0,500,0
thread block = 0,501,0
thread block = 0,502,0
thread block = 0,503,0
thread block = 0,504,0
thread block = 0,505,0
thread block = 0,506,0
thread block = 0,507,0
thread block = 0,508,0
thread block = 0,509,0
thread block = 0,510,0
thread block = 0,511,0
thread block = 0,512,0
thread block = 0,513,0
thread block = 0,514,0
thread block = 0,515,0
thread block = 0,516,0
thread block = 0,517,0
thread block = 0,518,0
thread block = 0,519,0
thread block = 0,520,0
thread block = 0,521,0
thread block = 0,522,0
thread block = 0,523,0
thread block = 0,524,0
thread block = 0,525,0
thread block = 0,526,0
thread block = 0,527,0
thread block = 0,528,0
thread block = 0,529,0
thread block = 0,530,0
thread block = 0,531,0
thread block = 0,532,0
thread block = 0,533,0
thread block = 0,534,0
thread block = 0,535,0
thread block = 0,536,0
thread block = 0,537,0
thread block = 0,538,0
thread block = 0,539,0
thread block = 0,540,0
thread block = 0,541,0
thread block = 0,542,0
thread block = 0,543,0
thread block = 0,544,0
thread block = 0,545,0
thread block = 0,546,0
thread block = 0,547,0
thread block = 0,548,0
thread block = 0,549,0
thread block = 0,550,0
thread block = 0,551,0
thread block = 0,552,0
thread block = 0,553,0
thread block = 0,554,0
thread block = 0,555,0
thread block = 0,556,0
thread block = 0,557,0
thread block = 0,558,0
thread block = 0,559,0
thread block = 0,560,0
thread block = 0,561,0
thread block = 0,562,0
thread block = 0,563,0
thread block = 0,564,0
thread block = 0,565,0
thread block = 0,566,0
thread block = 0,567,0
thread block = 0,568,0
thread block = 0,569,0
thread block = 0,570,0
thread block = 0,571,0
thread block = 0,572,0
thread block = 0,573,0
thread block = 0,574,0
thread block = 0,575,0
thread block = 0,576,0
thread block = 0,577,0
thread block = 0,578,0
thread block = 0,579,0
thread block = 0,580,0
thread block = 0,581,0
thread block = 0,582,0
thread block = 0,583,0
thread block = 0,584,0
thread block = 0,585,0
thread block = 0,586,0
thread block = 0,587,0
thread block = 0,588,0
thread block = 0,589,0
thread block = 0,590,0
thread block = 0,591,0
thread block = 0,592,0
thread block = 0,593,0
thread block = 0,594,0
thread block = 0,595,0
thread block = 0,596,0
thread block = 0,597,0
thread block = 0,598,0
thread block = 0,599,0
thread block = 0,600,0
thread block = 0,601,0
thread block = 0,602,0
thread block = 0,603,0
thread block = 0,604,0
thread block = 0,605,0
thread block = 0,606,0
thread block = 0,607,0
thread block = 0,608,0
thread block = 0,609,0
thread block = 0,610,0
thread block = 0,611,0
thread block = 0,612,0
thread block = 0,613,0
thread block = 0,614,0
thread block = 0,615,0
thread block = 0,616,0
thread block = 0,617,0
thread block = 0,618,0
thread block = 0,619,0
thread block = 0,620,0
thread block = 0,621,0
thread block = 0,622,0
thread block = 0,623,0
thread block = 0,624,0
thread block = 0,625,0
thread block = 0,626,0
thread block = 0,627,0
thread block = 0,628,0
thread block = 0,629,0
thread block = 0,630,0
thread block = 0,631,0
thread block = 0,632,0
thread block = 0,633,0
thread block = 0,634,0
thread block = 0,635,0
thread block = 0,636,0
thread block = 0,637,0
thread block = 0,638,0
thread block = 0,639,0
thread block = 0,640,0
thread block = 0,641,0
thread block = 0,642,0
thread block = 0,643,0
thread block = 0,644,0
thread block = 0,645,0
thread block = 0,646,0
thread block = 0,647,0
thread block = 0,648,0
thread block = 0,649,0
thread block = 0,650,0
thread block = 0,651,0
thread block = 0,652,0
thread block = 0,653,0
thread block = 0,654,0
thread block = 0,655,0
thread block = 0,656,0
thread block = 0,657,0
thread block = 0,658,0
thread block = 0,659,0
thread block = 0,660,0
thread block = 0,661,0
thread block = 0,662,0
thread block = 0,663,0
thread block = 0,664,0
thread block = 0,665,0
thread block = 0,666,0
thread block = 0,667,0
thread block = 0,668,0
thread block = 0,669,0
thread block = 0,670,0
thread block = 0,671,0
thread block = 0,672,0
thread block = 0,673,0
thread block = 0,674,0
thread block = 0,675,0
thread block = 0,676,0
thread block = 0,677,0
thread block = 0,678,0
thread block = 0,679,0
thread block = 0,680,0
thread block = 0,681,0
thread block = 0,682,0
thread block = 0,683,0
thread block = 0,684,0
thread block = 0,685,0
thread block = 0,686,0
thread block = 0,687,0
thread block = 0,688,0
thread block = 0,689,0
thread block = 0,690,0
thread block = 0,691,0
thread block = 0,692,0
thread block = 0,693,0
thread block = 0,694,0
thread block = 0,695,0
thread block = 0,696,0
thread block = 0,697,0
thread block = 0,698,0
thread block = 0,699,0
thread block = 0,700,0
thread block = 0,701,0
thread block = 0,702,0
thread block = 0,703,0
thread block = 0,704,0
thread block = 0,705,0
thread block = 0,706,0
thread block = 0,707,0
thread block = 0,708,0
thread block = 0,709,0
thread block = 0,710,0
thread block = 0,711,0
thread block = 0,712,0
thread block = 0,713,0
thread block = 0,714,0
thread block = 0,715,0
thread block = 0,716,0
thread block = 0,717,0
thread block = 0,718,0
thread block = 0,719,0
thread block = 0,720,0
thread block = 0,721,0
thread block = 0,722,0
thread block = 0,723,0
thread block = 0,724,0
thread block = 0,725,0
thread block = 0,726,0
thread block = 0,727,0
thread block = 0,728,0
thread block = 0,729,0
thread block = 0,730,0
thread block = 0,731,0
thread block = 0,732,0
thread block = 0,733,0
thread block = 0,734,0
thread block = 0,735,0
thread block = 0,736,0
thread block = 0,737,0
thread block = 0,738,0
thread block = 0,739,0
thread block = 0,740,0
thread block = 0,741,0
thread block = 0,742,0
thread block = 0,743,0
thread block = 0,744,0
thread block = 0,745,0
thread block = 0,746,0
thread block = 0,747,0
thread block = 0,748,0
thread block = 0,749,0
thread block = 0,750,0
thread block = 0,751,0
thread block = 0,752,0
thread block = 0,753,0
thread block = 0,754,0
thread block = 0,755,0
thread block = 0,756,0
thread block = 0,757,0
thread block = 0,758,0
thread block = 0,759,0
thread block = 0,760,0
thread block = 0,761,0
thread block = 0,762,0
thread block = 0,763,0
thread block = 0,764,0
thread block = 0,765,0
thread block = 0,766,0
thread block = 0,767,0
thread block = 0,768,0
thread block = 0,769,0
thread block = 0,770,0
thread block = 0,771,0
thread block = 0,772,0
thread block = 0,773,0
thread block = 0,774,0
thread block = 0,775,0
thread block = 0,776,0
thread block = 0,777,0
thread block = 0,778,0
thread block = 0,779,0
thread block = 0,780,0
thread block = 0,781,0
thread block = 0,782,0
thread block = 0,783,0
thread block = 0,784,0
thread block = 0,785,0
thread block = 0,786,0
thread block = 0,787,0
thread block = 0,788,0
thread block = 0,789,0
thread block = 0,790,0
thread block = 0,791,0
thread block = 0,792,0
thread block = 0,793,0
thread block = 0,794,0
thread block = 0,795,0
thread block = 0,796,0
thread block = 0,797,0
thread block = 0,798,0
thread block = 0,799,0
thread block = 0,800,0
thread block = 0,801,0
thread block = 0,802,0
thread block = 0,803,0
thread block = 0,804,0
thread block = 0,805,0
thread block = 0,806,0
thread block = 0,807,0
thread block = 0,808,0
thread block = 0,809,0
thread block = 0,810,0
thread block = 0,811,0
thread block = 0,812,0
thread block = 0,813,0
thread block = 0,814,0
thread block = 0,815,0
thread block = 0,816,0
thread block = 0,817,0
thread block = 0,818,0
thread block = 0,819,0
thread block = 0,820,0
thread block = 0,821,0
thread block = 0,822,0
thread block = 0,823,0
thread block = 0,824,0
thread block = 0,825,0
thread block = 0,826,0
thread block = 0,827,0
thread block = 0,828,0
thread block = 0,829,0
thread block = 0,830,0
thread block = 0,831,0
thread block = 0,832,0
thread block = 0,833,0
thread block = 0,834,0
thread block = 0,835,0
thread block = 0,836,0
thread block = 0,837,0
thread block = 0,838,0
thread block = 0,839,0
thread block = 0,840,0
thread block = 0,841,0
thread block = 0,842,0
thread block = 0,843,0
thread block = 0,844,0
thread block = 0,845,0
thread block = 0,846,0
thread block = 0,847,0
thread block = 0,848,0
thread block = 0,849,0
thread block = 0,850,0
thread block = 0,851,0
thread block = 0,852,0
thread block = 0,853,0
thread block = 0,854,0
thread block = 0,855,0
thread block = 0,856,0
thread block = 0,857,0
thread block = 0,858,0
thread block = 0,859,0
thread block = 0,860,0
thread block = 0,861,0
thread block = 0,862,0
thread block = 0,863,0
thread block = 0,864,0
thread block = 0,865,0
thread block = 0,866,0
thread block = 0,867,0
thread block = 0,868,0
thread block = 0,869,0
thread block = 0,870,0
thread block = 0,871,0
thread block = 0,872,0
thread block = 0,873,0
thread block = 0,874,0
thread block = 0,875,0
thread block = 0,876,0
thread block = 0,877,0
thread block = 0,878,0
thread block = 0,879,0
thread block = 0,880,0
thread block = 0,881,0
thread block = 0,882,0
thread block = 0,883,0
thread block = 0,884,0
thread block = 0,885,0
thread block = 0,886,0
thread block = 0,887,0
thread block = 0,888,0
thread block = 0,889,0
thread block = 0,890,0
thread block = 0,891,0
thread block = 0,892,0
thread block = 0,893,0
thread block = 0,894,0
thread block = 0,895,0
thread block = 0,896,0
thread block = 0,897,0
thread block = 0,898,0
thread block = 0,899,0
thread block = 0,900,0
thread block = 0,901,0
thread block = 0,902,0
thread block = 0,903,0
thread block = 0,904,0
thread block = 0,905,0
thread block = 0,906,0
thread block = 0,907,0
thread block = 0,908,0
thread block = 0,909,0
thread block = 0,910,0
thread block = 0,911,0
thread block = 0,912,0
thread block = 0,913,0
thread block = 0,914,0
thread block = 0,915,0
thread block = 0,916,0
thread block = 0,917,0
thread block = 0,918,0
thread block = 0,919,0
thread block = 0,920,0
thread block = 0,921,0
thread block = 0,922,0
thread block = 0,923,0
thread block = 0,924,0
thread block = 0,925,0
thread block = 0,926,0
thread block = 0,927,0
thread block = 0,928,0
thread block = 0,929,0
thread block = 0,930,0
thread block = 0,931,0
thread block = 0,932,0
thread block = 0,933,0
thread block = 0,934,0
thread block = 0,935,0
thread block = 0,936,0
thread block = 0,937,0
thread block = 0,938,0
thread block = 0,939,0
thread block = 0,940,0
thread block = 0,941,0
thread block = 0,942,0
thread block = 0,943,0
thread block = 0,944,0
thread block = 0,945,0
thread block = 0,946,0
thread block = 0,947,0
thread block = 0,948,0
thread block = 0,949,0
thread block = 0,950,0
thread block = 0,951,0
thread block = 0,952,0
thread block = 0,953,0
thread block = 0,954,0
thread block = 0,955,0
thread block = 0,956,0
thread block = 0,957,0
thread block = 0,958,0
thread block = 0,959,0
thread block = 0,960,0
thread block = 0,961,0
thread block = 0,962,0
thread block = 0,963,0
thread block = 0,964,0
thread block = 0,965,0
thread block = 0,966,0
thread block = 0,967,0
thread block = 0,968,0
thread block = 0,969,0
thread block = 0,970,0
thread block = 0,971,0
thread block = 0,972,0
thread block = 0,973,0
thread block = 0,974,0
thread block = 0,975,0
thread block = 0,976,0
thread block = 0,977,0
thread block = 0,978,0
thread block = 0,979,0
thread block = 0,980,0
thread block = 0,981,0
thread block = 0,982,0
thread block = 0,983,0
thread block = 0,984,0
thread block = 0,985,0
thread block = 0,986,0
thread block = 0,987,0
thread block = 0,988,0
thread block = 0,989,0
thread block = 0,990,0
thread block = 0,991,0
thread block = 0,992,0
thread block = 0,993,0
thread block = 0,994,0
thread block = 0,995,0
thread block = 0,996,0
thread block = 0,997,0
thread block = 0,998,0
thread block = 0,999,0
thread block = 0,1000,0
thread block = 0,1001,0
thread block = 0,1002,0
thread block = 0,1003,0
thread block = 0,1004,0
thread block = 0,1005,0
thread block = 0,1006,0
thread block = 0,1007,0
thread block = 0,1008,0
thread block = 0,1009,0
thread block = 0,1010,0
thread block = 0,1011,0
thread block = 0,1012,0
thread block = 0,1013,0
thread block = 0,1014,0
thread block = 0,1015,0
thread block = 0,1016,0
thread block = 0,1017,0
thread block = 0,1018,0
thread block = 0,1019,0
thread block = 0,1020,0
thread block = 0,1021,0
thread block = 0,1022,0
thread block = 0,1023,0
thread block = 0,1024,0
thread block = 0,1025,0
thread block = 0,1026,0
thread block = 0,1027,0
thread block = 0,1028,0
thread block = 0,1029,0
thread block = 0,1030,0
thread block = 0,1031,0
thread block = 0,1032,0
thread block = 0,1033,0
thread block = 0,1034,0
thread block = 0,1035,0
thread block = 0,1036,0
thread block = 0,1037,0
thread block = 0,1038,0
thread block = 0,1039,0
thread block = 0,1040,0
thread block = 0,1041,0
thread block = 0,1042,0
thread block = 0,1043,0
thread block = 0,1044,0
thread block = 0,1045,0
thread block = 0,1046,0
thread block = 0,1047,0
thread block = 0,1048,0
thread block = 0,1049,0
thread block = 0,1050,0
thread block = 0,1051,0
thread block = 0,1052,0
thread block = 0,1053,0
thread block = 0,1054,0
thread block = 0,1055,0
thread block = 0,1056,0
thread block = 0,1057,0
thread block = 0,1058,0
thread block = 0,1059,0
thread block = 0,1060,0
thread block = 0,1061,0
thread block = 0,1062,0
thread block = 0,1063,0
thread block = 0,1064,0
thread block = 0,1065,0
thread block = 0,1066,0
thread block = 0,1067,0
thread block = 0,1068,0
thread block = 0,1069,0
thread block = 0,1070,0
thread block = 0,1071,0
thread block = 0,1072,0
thread block = 0,1073,0
thread block = 0,1074,0
thread block = 0,1075,0
thread block = 0,1076,0
thread block = 0,1077,0
thread block = 0,1078,0
thread block = 0,1079,0
thread block = 0,1080,0
thread block = 0,1081,0
thread block = 0,1082,0
thread block = 0,1083,0
thread block = 0,1084,0
thread block = 0,1085,0
thread block = 0,1086,0
thread block = 0,1087,0
thread block = 0,1088,0
thread block = 0,1089,0
thread block = 0,1090,0
thread block = 0,1091,0
thread block = 0,1092,0
thread block = 0,1093,0
thread block = 0,1094,0
thread block = 0,1095,0
thread block = 0,1096,0
thread block = 0,1097,0
thread block = 0,1098,0
thread block = 0,1099,0
thread block = 0,1100,0
thread block = 0,1101,0
thread block = 0,1102,0
thread block = 0,1103,0
thread block = 0,1104,0
thread block = 0,1105,0
thread block = 0,1106,0
thread block = 0,1107,0
thread block = 0,1108,0
thread block = 0,1109,0
thread block = 0,1110,0
thread block = 0,1111,0
thread block = 0,1112,0
thread block = 0,1113,0
thread block = 0,1114,0
thread block = 0,1115,0
thread block = 0,1116,0
thread block = 0,1117,0
thread block = 0,1118,0
thread block = 0,1119,0
thread block = 0,1120,0
thread block = 0,1121,0
thread block = 0,1122,0
thread block = 0,1123,0
thread block = 0,1124,0
thread block = 0,1125,0
thread block = 0,1126,0
thread block = 0,1127,0
thread block = 0,1128,0
thread block = 0,1129,0
thread block = 0,1130,0
thread block = 0,1131,0
thread block = 0,1132,0
thread block = 0,1133,0
thread block = 0,1134,0
thread block = 0,1135,0
thread block = 0,1136,0
thread block = 0,1137,0
thread block = 0,1138,0
thread block = 0,1139,0
thread block = 0,1140,0
thread block = 0,1141,0
thread block = 0,1142,0
thread block = 0,1143,0
thread block = 0,1144,0
thread block = 0,1145,0
thread block = 0,1146,0
thread block = 0,1147,0
thread block = 0,1148,0
thread block = 0,1149,0
thread block = 0,1150,0
thread block = 0,1151,0
thread block = 0,1152,0
thread block = 0,1153,0
thread block = 0,1154,0
thread block = 0,1155,0
thread block = 0,1156,0
thread block = 0,1157,0
thread block = 0,1158,0
thread block = 0,1159,0
thread block = 0,1160,0
thread block = 0,1161,0
thread block = 0,1162,0
thread block = 0,1163,0
thread block = 0,1164,0
thread block = 0,1165,0
thread block = 0,1166,0
thread block = 0,1167,0
thread block = 0,1168,0
thread block = 0,1169,0
thread block = 0,1170,0
thread block = 0,1171,0
thread block = 0,1172,0
thread block = 0,1173,0
thread block = 0,1174,0
thread block = 0,1175,0
thread block = 0,1176,0
thread block = 0,1177,0
thread block = 0,1178,0
thread block = 0,1179,0
thread block = 0,1180,0
thread block = 0,1181,0
thread block = 0,1182,0
thread block = 0,1183,0
thread block = 0,1184,0
thread block = 0,1185,0
thread block = 0,1186,0
thread block = 0,1187,0
thread block = 0,1188,0
thread block = 0,1189,0
thread block = 0,1190,0
thread block = 0,1191,0
thread block = 0,1192,0
thread block = 0,1193,0
thread block = 0,1194,0
thread block = 0,1195,0
thread block = 0,1196,0
thread block = 0,1197,0
thread block = 0,1198,0
thread block = 0,1199,0
thread block = 0,1200,0
thread block = 0,1201,0
thread block = 0,1202,0
thread block = 0,1203,0
thread block = 0,1204,0
thread block = 0,1205,0
thread block = 0,1206,0
thread block = 0,1207,0
thread block = 0,1208,0
thread block = 0,1209,0
thread block = 0,1210,0
thread block = 0,1211,0
thread block = 0,1212,0
thread block = 0,1213,0
thread block = 0,1214,0
thread block = 0,1215,0
thread block = 0,1216,0
thread block = 0,1217,0
thread block = 0,1218,0
thread block = 0,1219,0
thread block = 0,1220,0
thread block = 0,1221,0
thread block = 0,1222,0
thread block = 0,1223,0
thread block = 0,1224,0
thread block = 0,1225,0
thread block = 0,1226,0
thread block = 0,1227,0
thread block = 0,1228,0
thread block = 0,1229,0
thread block = 0,1230,0
thread block = 0,1231,0
thread block = 0,1232,0
thread block = 0,1233,0
thread block = 0,1234,0
thread block = 0,1235,0
thread block = 0,1236,0
thread block = 0,1237,0
thread block = 0,1238,0
thread block = 0,1239,0
thread block = 0,1240,0
thread block = 0,1241,0
thread block = 0,1242,0
thread block = 0,1243,0
thread block = 0,1244,0
thread block = 0,1245,0
thread block = 0,1246,0
thread block = 0,1247,0
thread block = 0,1248,0
thread block = 0,1249,0
thread block = 0,1250,0
thread block = 0,1251,0
thread block = 0,1252,0
thread block = 0,1253,0
thread block = 0,1254,0
thread block = 0,1255,0
thread block = 0,1256,0
thread block = 0,1257,0
thread block = 0,1258,0
thread block = 0,1259,0
thread block = 0,1260,0
thread block = 0,1261,0
thread block = 0,1262,0
thread block = 0,1263,0
thread block = 0,1264,0
thread block = 0,1265,0
thread block = 0,1266,0
thread block = 0,1267,0
thread block = 0,1268,0
thread block = 0,1269,0
thread block = 0,1270,0
thread block = 0,1271,0
thread block = 0,1272,0
thread block = 0,1273,0
thread block = 0,1274,0
thread block = 0,1275,0
thread block = 0,1276,0
thread block = 0,1277,0
thread block = 0,1278,0
thread block = 0,1279,0
thread block = 0,1280,0
thread block = 0,1281,0
thread block = 0,1282,0
thread block = 0,1283,0
thread block = 0,1284,0
thread block = 0,1285,0
thread block = 0,1286,0
thread block = 0,1287,0
thread block = 0,1288,0
thread block = 0,1289,0
thread block = 0,1290,0
thread block = 0,1291,0
thread block = 0,1292,0
thread block = 0,1293,0
thread block = 0,1294,0
thread block = 0,1295,0
thread block = 0,1296,0
thread block = 0,1297,0
thread block = 0,1298,0
thread block = 0,1299,0
thread block = 0,1300,0
thread block = 0,1301,0
thread block = 0,1302,0
thread block = 0,1303,0
thread block = 0,1304,0
thread block = 0,1305,0
thread block = 0,1306,0
thread block = 0,1307,0
thread block = 0,1308,0
thread block = 0,1309,0
thread block = 0,1310,0
thread block = 0,1311,0
thread block = 0,1312,0
thread block = 0,1313,0
thread block = 0,1314,0
thread block = 0,1315,0
thread block = 0,1316,0
thread block = 0,1317,0
thread block = 0,1318,0
thread block = 0,1319,0
thread block = 0,1320,0
thread block = 0,1321,0
thread block = 0,1322,0
thread block = 0,1323,0
thread block = 0,1324,0
thread block = 0,1325,0
thread block = 0,1326,0
thread block = 0,1327,0
thread block = 0,1328,0
thread block = 0,1329,0
thread block = 0,1330,0
thread block = 0,1331,0
thread block = 0,1332,0
thread block = 0,1333,0
thread block = 0,1334,0
thread block = 0,1335,0
thread block = 0,1336,0
thread block = 0,1337,0
thread block = 0,1338,0
thread block = 0,1339,0
thread block = 0,1340,0
thread block = 0,1341,0
thread block = 0,1342,0
thread block = 0,1343,0
thread block = 0,1344,0
thread block = 0,1345,0
thread block = 0,1346,0
thread block = 0,1347,0
thread block = 0,1348,0
thread block = 0,1349,0
thread block = 0,1350,0
thread block = 0,1351,0
thread block = 0,1352,0
thread block = 0,1353,0
thread block = 0,1354,0
thread block = 0,1355,0
thread block = 0,1356,0
thread block = 0,1357,0
thread block = 0,1358,0
thread block = 0,1359,0
thread block = 0,1360,0
thread block = 0,1361,0
thread block = 0,1362,0
thread block = 0,1363,0
thread block = 0,1364,0
thread block = 0,1365,0
thread block = 0,1366,0
thread block = 0,1367,0
thread block = 0,1368,0
thread block = 0,1369,0
thread block = 0,1370,0
thread block = 0,1371,0
thread block = 0,1372,0
thread block = 0,1373,0
thread block = 0,1374,0
thread block = 0,1375,0
thread block = 0,1376,0
thread block = 0,1377,0
thread block = 0,1378,0
thread block = 0,1379,0
thread block = 0,1380,0
thread block = 0,1381,0
thread block = 0,1382,0
thread block = 0,1383,0
thread block = 0,1384,0
thread block = 0,1385,0
thread block = 0,1386,0
thread block = 0,1387,0
thread block = 0,1388,0
thread block = 0,1389,0
thread block = 0,1390,0
thread block = 0,1391,0
thread block = 0,1392,0
thread block = 0,1393,0
thread block = 0,1394,0
thread block = 0,1395,0
thread block = 0,1396,0
thread block = 0,1397,0
thread block = 0,1398,0
thread block = 0,1399,0
thread block = 0,1400,0
thread block = 0,1401,0
thread block = 0,1402,0
thread block = 0,1403,0
thread block = 0,1404,0
thread block = 0,1405,0
thread block = 0,1406,0
thread block = 0,1407,0
thread block = 0,1408,0
thread block = 0,1409,0
thread block = 0,1410,0
thread block = 0,1411,0
thread block = 0,1412,0
thread block = 0,1413,0
thread block = 0,1414,0
thread block = 0,1415,0
thread block = 0,1416,0
thread block = 0,1417,0
thread block = 0,1418,0
thread block = 0,1419,0
thread block = 0,1420,0
thread block = 0,1421,0
thread block = 0,1422,0
thread block = 0,1423,0
thread block = 0,1424,0
thread block = 0,1425,0
thread block = 0,1426,0
thread block = 0,1427,0
thread block = 0,1428,0
thread block = 0,1429,0
thread block = 0,1430,0
thread block = 0,1431,0
thread block = 0,1432,0
thread block = 0,1433,0
thread block = 0,1434,0
thread block = 0,1435,0
thread block = 0,1436,0
thread block = 0,1437,0
thread block = 0,1438,0
thread block = 0,1439,0
thread block = 0,1440,0
thread block = 0,1441,0
thread block = 0,1442,0
thread block = 0,1443,0
thread block = 0,1444,0
thread block = 0,1445,0
thread block = 0,1446,0
thread block = 0,1447,0
thread block = 0,1448,0
thread block = 0,1449,0
thread block = 0,1450,0
thread block = 0,1451,0
thread block = 0,1452,0
thread block = 0,1453,0
thread block = 0,1454,0
thread block = 0,1455,0
thread block = 0,1456,0
thread block = 0,1457,0
thread block = 0,1458,0
thread block = 0,1459,0
thread block = 0,1460,0
thread block = 0,1461,0
thread block = 0,1462,0
thread block = 0,1463,0
thread block = 0,1464,0
thread block = 0,1465,0
thread block = 0,1466,0
thread block = 0,1467,0
thread block = 0,1468,0
thread block = 0,1469,0
thread block = 0,1470,0
thread block = 0,1471,0
thread block = 0,1472,0
thread block = 0,1473,0
thread block = 0,1474,0
thread block = 0,1475,0
thread block = 0,1476,0
thread block = 0,1477,0
thread block = 0,1478,0
thread block = 0,1479,0
thread block = 0,1480,0
thread block = 0,1481,0
thread block = 0,1482,0
thread block = 0,1483,0
thread block = 0,1484,0
thread block = 0,1485,0
thread block = 0,1486,0
thread block = 0,1487,0
thread block = 0,1488,0
thread block = 0,1489,0
thread block = 0,1490,0
thread block = 0,1491,0
thread block = 0,1492,0
thread block = 0,1493,0
thread block = 0,1494,0
thread block = 0,1495,0
thread block = 0,1496,0
thread block = 0,1497,0
thread block = 0,1498,0
thread block = 0,1499,0
thread block = 0,1500,0
thread block = 0,1501,0
thread block = 0,1502,0
thread block = 0,1503,0
thread block = 0,1504,0
thread block = 0,1505,0
thread block = 0,1506,0
thread block = 0,1507,0
thread block = 0,1508,0
thread block = 0,1509,0
thread block = 0,1510,0
thread block = 0,1511,0
thread block = 0,1512,0
thread block = 0,1513,0
thread block = 0,1514,0
thread block = 0,1515,0
thread block = 0,1516,0
thread block = 0,1517,0
thread block = 0,1518,0
thread block = 0,1519,0
thread block = 0,1520,0
thread block = 0,1521,0
thread block = 0,1522,0
thread block = 0,1523,0
thread block = 0,1524,0
thread block = 0,1525,0
thread block = 0,1526,0
thread block = 0,1527,0
thread block = 0,1528,0
thread block = 0,1529,0
thread block = 0,1530,0
thread block = 0,1531,0
thread block = 0,1532,0
thread block = 0,1533,0
thread block = 0,1534,0
thread block = 0,1535,0
thread block = 0,1536,0
thread block = 0,1537,0
thread block = 0,1538,0
thread block = 0,1539,0
thread block = 0,1540,0
thread block = 0,1541,0
thread block = 0,1542,0
thread block = 0,1543,0
thread block = 0,1544,0
thread block = 0,1545,0
thread block = 0,1546,0
thread block = 0,1547,0
thread block = 0,1548,0
thread block = 0,1549,0
thread block = 0,1550,0
thread block = 0,1551,0
thread block = 0,1552,0
thread block = 0,1553,0
thread block = 0,1554,0
thread block = 0,1555,0
thread block = 0,1556,0
thread block = 0,1557,0
thread block = 0,1558,0
thread block = 0,1559,0
thread block = 0,1560,0
thread block = 0,1561,0
thread block = 0,1562,0
thread block = 0,1563,0
thread block = 0,1564,0
thread block = 0,1565,0
thread block = 0,1566,0
thread block = 0,1567,0
thread block = 0,1568,0
thread block = 0,1569,0
thread block = 0,1570,0
thread block = 0,1571,0
thread block = 0,1572,0
thread block = 0,1573,0
thread block = 0,1574,0
thread block = 0,1575,0
thread block = 0,1576,0
thread block = 0,1577,0
thread block = 0,1578,0
thread block = 0,1579,0
thread block = 0,1580,0
thread block = 0,1581,0
thread block = 0,1582,0
thread block = 0,1583,0
thread block = 0,1584,0
thread block = 0,1585,0
thread block = 0,1586,0
thread block = 0,1587,0
thread block = 0,1588,0
thread block = 0,1589,0
thread block = 0,1590,0
thread block = 0,1591,0
thread block = 0,1592,0
thread block = 0,1593,0
thread block = 0,1594,0
thread block = 0,1595,0
thread block = 0,1596,0
thread block = 0,1597,0
thread block = 0,1598,0
thread block = 0,1599,0
thread block = 0,1600,0
thread block = 0,1601,0
thread block = 0,1602,0
thread block = 0,1603,0
thread block = 0,1604,0
thread block = 0,1605,0
thread block = 0,1606,0
thread block = 0,1607,0
thread block = 0,1608,0
thread block = 0,1609,0
thread block = 0,1610,0
thread block = 0,1611,0
thread block = 0,1612,0
thread block = 0,1613,0
thread block = 0,1614,0
thread block = 0,1615,0
thread block = 0,1616,0
thread block = 0,1617,0
thread block = 0,1618,0
thread block = 0,1619,0
thread block = 0,1620,0
thread block = 0,1621,0
thread block = 0,1622,0
thread block = 0,1623,0
thread block = 0,1624,0
thread block = 0,1625,0
thread block = 0,1626,0
thread block = 0,1627,0
thread block = 0,1628,0
thread block = 0,1629,0
thread block = 0,1630,0
thread block = 0,1631,0
thread block = 0,1632,0
thread block = 0,1633,0
thread block = 0,1634,0
thread block = 0,1635,0
thread block = 0,1636,0
thread block = 0,1637,0
thread block = 0,1638,0
thread block = 0,1639,0
thread block = 0,1640,0
thread block = 0,1641,0
thread block = 0,1642,0
thread block = 0,1643,0
thread block = 0,1644,0
thread block = 0,1645,0
thread block = 0,1646,0
thread block = 0,1647,0
thread block = 0,1648,0
thread block = 0,1649,0
thread block = 0,1650,0
thread block = 0,1651,0
thread block = 0,1652,0
thread block = 0,1653,0
thread block = 0,1654,0
thread block = 0,1655,0
thread block = 0,1656,0
thread block = 0,1657,0
thread block = 0,1658,0
thread block = 0,1659,0
thread block = 0,1660,0
thread block = 0,1661,0
thread block = 0,1662,0
thread block = 0,1663,0
thread block = 0,1664,0
thread block = 0,1665,0
thread block = 0,1666,0
thread block = 0,1667,0
thread block = 0,1668,0
thread block = 0,1669,0
thread block = 0,1670,0
thread block = 0,1671,0
thread block = 0,1672,0
thread block = 0,1673,0
thread block = 0,1674,0
thread block = 0,1675,0
thread block = 0,1676,0
thread block = 0,1677,0
thread block = 0,1678,0
thread block = 0,1679,0
thread block = 0,1680,0
thread block = 0,1681,0
thread block = 0,1682,0
thread block = 0,1683,0
thread block = 0,1684,0
thread block = 0,1685,0
thread block = 0,1686,0
thread block = 0,1687,0
thread block = 0,1688,0
thread block = 0,1689,0
thread block = 0,1690,0
thread block = 0,1691,0
thread block = 0,1692,0
thread block = 0,1693,0
thread block = 0,1694,0
thread block = 0,1695,0
thread block = 0,1696,0
thread block = 0,1697,0
thread block = 0,1698,0
thread block = 0,1699,0
thread block = 0,1700,0
thread block = 0,1701,0
thread block = 0,1702,0
thread block = 0,1703,0
thread block = 0,1704,0
thread block = 0,1705,0
thread block = 0,1706,0
thread block = 0,1707,0
thread block = 0,1708,0
thread block = 0,1709,0
thread block = 0,1710,0
thread block = 0,1711,0
thread block = 0,1712,0
thread block = 0,1713,0
thread block = 0,1714,0
thread block = 0,1715,0
thread block = 0,1716,0
thread block = 0,1717,0
thread block = 0,1718,0
thread block = 0,1719,0
thread block = 0,1720,0
thread block = 0,1721,0
thread block = 0,1722,0
thread block = 0,1723,0
thread block = 0,1724,0
thread block = 0,1725,0
thread block = 0,1726,0
thread block = 0,1727,0
thread block = 0,1728,0
thread block = 0,1729,0
thread block = 0,1730,0
thread block = 0,1731,0
thread block = 0,1732,0
thread block = 0,1733,0
thread block = 0,1734,0
thread block = 0,1735,0
thread block = 0,1736,0
thread block = 0,1737,0
thread block = 0,1738,0
thread block = 0,1739,0
thread block = 0,1740,0
thread block = 0,1741,0
thread block = 0,1742,0
thread block = 0,1743,0
thread block = 0,1744,0
thread block = 0,1745,0
thread block = 0,1746,0
thread block = 0,1747,0
thread block = 0,1748,0
thread block = 0,1749,0
thread block = 0,1750,0
thread block = 0,1751,0
thread block = 0,1752,0
thread block = 0,1753,0
thread block = 0,1754,0
thread block = 0,1755,0
thread block = 0,1756,0
thread block = 0,1757,0
thread block = 0,1758,0
thread block = 0,1759,0
thread block = 0,1760,0
thread block = 0,1761,0
thread block = 0,1762,0
thread block = 0,1763,0
thread block = 0,1764,0
thread block = 0,1765,0
thread block = 0,1766,0
thread block = 0,1767,0
thread block = 0,1768,0
thread block = 0,1769,0
thread block = 0,1770,0
thread block = 0,1771,0
thread block = 0,1772,0
thread block = 0,1773,0
thread block = 0,1774,0
thread block = 0,1775,0
thread block = 0,1776,0
thread block = 0,1777,0
thread block = 0,1778,0
thread block = 0,1779,0
thread block = 0,1780,0
thread block = 0,1781,0
thread block = 0,1782,0
thread block = 0,1783,0
thread block = 0,1784,0
thread block = 0,1785,0
thread block = 0,1786,0
thread block = 0,1787,0
thread block = 0,1788,0
thread block = 0,1789,0
thread block = 0,1790,0
thread block = 0,1791,0
thread block = 0,1792,0
thread block = 0,1793,0
thread block = 0,1794,0
thread block = 0,1795,0
thread block = 0,1796,0
thread block = 0,1797,0
thread block = 0,1798,0
thread block = 0,1799,0
thread block = 0,1800,0
thread block = 0,1801,0
thread block = 0,1802,0
thread block = 0,1803,0
thread block = 0,1804,0
thread block = 0,1805,0
thread block = 0,1806,0
thread block = 0,1807,0
thread block = 0,1808,0
thread block = 0,1809,0
thread block = 0,1810,0
thread block = 0,1811,0
thread block = 0,1812,0
thread block = 0,1813,0
thread block = 0,1814,0
thread block = 0,1815,0
thread block = 0,1816,0
thread block = 0,1817,0
thread block = 0,1818,0
thread block = 0,1819,0
thread block = 0,1820,0
thread block = 0,1821,0
thread block = 0,1822,0
thread block = 0,1823,0
thread block = 0,1824,0
thread block = 0,1825,0
thread block = 0,1826,0
thread block = 0,1827,0
thread block = 0,1828,0
thread block = 0,1829,0
thread block = 0,1830,0
thread block = 0,1831,0
thread block = 0,1832,0
thread block = 0,1833,0
thread block = 0,1834,0
thread block = 0,1835,0
thread block = 0,1836,0
thread block = 0,1837,0
thread block = 0,1838,0
thread block = 0,1839,0
thread block = 0,1840,0
thread block = 0,1841,0
thread block = 0,1842,0
thread block = 0,1843,0
thread block = 0,1844,0
thread block = 0,1845,0
thread block = 0,1846,0
thread block = 0,1847,0
thread block = 0,1848,0
thread block = 0,1849,0
thread block = 0,1850,0
thread block = 0,1851,0
thread block = 0,1852,0
thread block = 0,1853,0
thread block = 0,1854,0
thread block = 0,1855,0
thread block = 0,1856,0
thread block = 0,1857,0
thread block = 0,1858,0
thread block = 0,1859,0
thread block = 0,1860,0
thread block = 0,1861,0
thread block = 0,1862,0
thread block = 0,1863,0
thread block = 0,1864,0
thread block = 0,1865,0
thread block = 0,1866,0
thread block = 0,1867,0
thread block = 0,1868,0
thread block = 0,1869,0
thread block = 0,1870,0
thread block = 0,1871,0
thread block = 0,1872,0
thread block = 0,1873,0
thread block = 0,1874,0
thread block = 0,1875,0
thread block = 0,1876,0
thread block = 0,1877,0
thread block = 0,1878,0
thread block = 0,1879,0
thread block = 0,1880,0
thread block = 0,1881,0
thread block = 0,1882,0
thread block = 0,1883,0
thread block = 0,1884,0
thread block = 0,1885,0
thread block = 0,1886,0
thread block = 0,1887,0
thread block = 0,1888,0
thread block = 0,1889,0
thread block = 0,1890,0
thread block = 0,1891,0
thread block = 0,1892,0
thread block = 0,1893,0
thread block = 0,1894,0
thread block = 0,1895,0
thread block = 0,1896,0
thread block = 0,1897,0
thread block = 0,1898,0
thread block = 0,1899,0
thread block = 0,1900,0
thread block = 0,1901,0
thread block = 0,1902,0
thread block = 0,1903,0
thread block = 0,1904,0
thread block = 0,1905,0
thread block = 0,1906,0
thread block = 0,1907,0
thread block = 0,1908,0
thread block = 0,1909,0
thread block = 0,1910,0
thread block = 0,1911,0
thread block = 0,1912,0
thread block = 0,1913,0
thread block = 0,1914,0
thread block = 0,1915,0
thread block = 0,1916,0
thread block = 0,1917,0
thread block = 0,1918,0
thread block = 0,1919,0
thread block = 0,1920,0
thread block = 0,1921,0
thread block = 0,1922,0
thread block = 0,1923,0
thread block = 0,1924,0
thread block = 0,1925,0
thread block = 0,1926,0
thread block = 0,1927,0
thread block = 0,1928,0
thread block = 0,1929,0
thread block = 0,1930,0
thread block = 0,1931,0
thread block = 0,1932,0
thread block = 0,1933,0
thread block = 0,1934,0
thread block = 0,1935,0
thread block = 0,1936,0
thread block = 0,1937,0
thread block = 0,1938,0
thread block = 0,1939,0
thread block = 0,1940,0
thread block = 0,1941,0
thread block = 0,1942,0
thread block = 0,1943,0
thread block = 0,1944,0
thread block = 0,1945,0
thread block = 0,1946,0
thread block = 0,1947,0
thread block = 0,1948,0
thread block = 0,1949,0
thread block = 0,1950,0
thread block = 0,1951,0
thread block = 0,1952,0
thread block = 0,1953,0
thread block = 0,1954,0
thread block = 0,1955,0
thread block = 0,1956,0
thread block = 0,1957,0
thread block = 0,1958,0
thread block = 0,1959,0
thread block = 0,1960,0
thread block = 0,1961,0
[...]
n_cmd=59755 n_nop=47428 n_act=266 n_pre=250 n_ref_event=0 n_req=11944 n_rd=11944 n_rd_L2_A=0 n_write=0 n_wr_bk=0 bw_util=0.1999
n_activity=31282 dram_eff=0.3818
bk0: 768a 57506i bk1: 768a 57491i bk2: 768a 57449i bk3: 768a 57212i bk4: 744a 57852i bk5: 744a 57787i bk6: 704a 58348i bk7: 704a 58286i bk8: 704a 58422i bk9: 704a 58419i bk10: 748a 58322i bk11: 748a 58287i bk12: 768a 58240i bk13: 768a 58200i bk14: 768a 58302i bk15: 768a 58205i 

------------------------------------------------------------------------

Row_Buffer_Locality = 0.977729
Row_Buffer_Locality_read = 0.977729
Row_Buffer_Locality_write = -nan
Bank_Level_Parallism = 1.823176
Bank_Level_Parallism_Col = 1.684721
Bank_Level_Parallism_Ready = 1.177328
write_to_read_ratio_blp_rw_average = 0.000000
GrpLevelPara = 1.622105 

BW Util details:
bwutil = 0.199883 
total_CMD = 59755 
util_bw = 11944 
Wasted_Col = 8136 
Wasted_Row = 1693 
Idle = 37982 

BW Util Bottlenecks: 
RCDc_limit = 3002 
RCDWRc_limit = 0 
WTRc_limit = 0 
RTWc_limit = 0 
CCDLc_limit = 8108 
rwq = 0 
CCDLc_limit_alone = 8108 
WTRc_limit_alone = 0 
RTWc_limit_alone = 0 

Commands details: 
total_CMD = 59755 
n_nop = 47428 
Read = 11944 
Write = 0 
L2_Alloc = 0 
L2_WB = 0 
n_act = 266 
n_pre = 250 
n_ref = 0 
n_req = 11944 
total_req = 11944 

Dual Bus Interface Util: 
issued_total_row = 516 
issued_total_col = 11944 
Row_Bus_Util =  0.008635 
CoL_Bus_Util = 0.199883 
Either_Row_CoL_Bus_Util = 0.206292 
Issued_on_Two_Bus_Simul_Util = 0.002226 
issued_two_Eff = 0.010789 
queue_avg = 1.577240 


dram_util_bins: 0 0 0 0 0 0 0 0 0 0
dram_eff_bins: 0 0 0 0 0 0 0 0 0 0
mrqq: max=49 avg=1.57724
Memory Partition 20: 
Cache L2_bank_040:
MSHR contents

Cache L2_bank_041:
MSHR contents

In Dram Latency Queue (total = 0): 
DRAM[20]: 16 bks, busW=16 BL=2 CL=19, tRRD=5 tCCD=1, tRCD=17 tRAS=45 tRP=19 tRC=64
n_cmd=59755 n_nop=47468 n_act=256 n_pre=240 n_ref_event=0 n_req=11944 n_rd=11944 n_rd_L2_A=0 n_write=0 n_wr_bk=0 bw_util=0.1999
n_activity=31113 dram_eff=0.3839
bk0: 768a 57642i bk1: 768a 57586i bk2: 768a 57382i bk3: 768a 57186i bk4: 744a 57837i bk5: 744a 58116i bk6: 704a 58369i bk7: 704a 58313i bk8: 704a 58473i bk9: 704a 58452i bk10: 748a 58316i bk11: 748a 58208i bk12: 768a 58302i bk13: 768a 58235i bk14: 768a 58280i bk15: 768a 58187i 

------------------------------------------------------------------------

Row_Buffer_Locality = 0.978567
Row_Buffer_Locality_read = 0.978567
Row_Buffer_Locality_write = -nan
Bank_Level_Parallism = 1.827691
Bank_Level_Parallism_Col = 1.692767
Bank_Level_Parallism_Ready = 1.187458
write_to_read_ratio_blp_rw_average = 0.000000
GrpLevelPara = 1.628343 

BW Util details:
bwutil = 0.199883 
total_CMD = 59755 
util_bw = 11944 
Wasted_Col = 7882 
Wasted_Row = 1589 
Idle = 38340 

BW Util Bottlenecks: 
RCDc_limit = 2860 
RCDWRc_limit = 0 
WTRc_limit = 0 
RTWc_limit = 0 
CCDLc_limit = 7938 
rwq = 0 
CCDLc_limit_alone = 7938 
WTRc_limit_alone = 0 
RTWc_limit_alone = 0 

Commands details: 
total_CMD = 59755 
n_nop = 47468 
Read = 11944 
Write = 0 
L2_Alloc = 0 
L2_WB = 0 
n_act = 256 
n_pre = 240 
n_ref = 0 
n_req = 11944 
total_req = 11944 

Dual Bus Interface Util: 
issued_total_row = 496 
issued_total_col = 11944 
Row_Bus_Util =  0.008301 
CoL_Bus_Util = 0.199883 
Either_Row_CoL_Bus_Util = 0.205623 
Issued_on_Two_Bus_Simul_Util = 0.002560 
issued_two_Eff = 0.012452 
queue_avg = 1.583801 


dram_util_bins: 0 0 0 0 0 0 0 0 0 0
dram_eff_bins: 0 0 0 0 0 0 0 0 0 0
mrqq: max=56 avg=1.5838
Memory Partition 21: 
Cache L2_bank_042:
MSHR contents

Cache L2_bank_043:
MSHR contents

In Dram Latency Queue (total = 0): 
DRAM[21]: 16 bks, busW=16 BL=2 CL=19, tRRD=5 tCCD=1, tRCD=17 tRAS=45 tRP=19 tRC=64
n_cmd=59755 n_nop=47470 n_act=250 n_pre=234 n_ref_event=0 n_req=11944 n_rd=11944 n_rd_L2_A=0 n_write=0 n_wr_bk=0 bw_util=0.1999
n_activity=31609 dram_eff=0.3779
bk0: 768a 57668i bk1: 768a 57748i bk2: 768a 57475i bk3: 768a 57340i bk4: 744a 58145i bk5: 744a 58031i bk6: 704a 58418i bk7: 704a 58330i bk8: 704a 58488i bk9: 704a 58436i bk10: 748a 58325i bk11: 748a 58231i bk12: 768a 58277i bk13: 768a 58242i bk14: 768a 58243i bk15: 768a 58222i 

------------------------------------------------------------------------

Row_Buffer_Locality = 0.979069
Row_Buffer_Locality_read = 0.979069
Row_Buffer_Locality_write = -nan
Bank_Level_Parallism = 1.773412
Bank_Level_Parallism_Col = 1.643879
Bank_Level_Parallism_Ready = 1.172137
write_to_read_ratio_blp_rw_average = 0.000000
GrpLevelPara = 1.592118 

BW Util details:
bwutil = 0.199883 
total_CMD = 59755 
util_bw = 11944 
Wasted_Col = 8133 
Wasted_Row = 1579 
Idle = 38099 

BW Util Bottlenecks: 
RCDc_limit = 2853 
RCDWRc_limit = 0 
WTRc_limit = 0 
RTWc_limit = 0 
CCDLc_limit = 8036 
rwq = 0 
CCDLc_limit_alone = 8036 
WTRc_limit_alone = 0 
RTWc_limit_alone = 0 

Commands details: 
total_CMD = 59755 
n_nop = 47470 
Read = 11944 
Write = 0 
L2_Alloc = 0 
L2_WB = 0 
n_act = 250 
n_pre = 234 
n_ref = 0 
n_req = 11944 
total_req = 11944 

Dual Bus Interface Util: 
issued_total_row = 484 
issued_total_col = 11944 
Row_Bus_Util =  0.008100 
CoL_Bus_Util = 0.199883 
Either_Row_CoL_Bus_Util = 0.205589 
Issued_on_Two_Bus_Simul_Util = 0.002393 
issued_two_Eff = 0.011640 
queue_avg = 1.493381 


dram_util_bins: 0 0 0 0 0 0 0 0 0 0
dram_eff_bins: 0 0 0 0 0 0 0 0 0 0
mrqq: max=50 avg=1.49338
Memory Partition 22: 
Cache L2_bank_044:
MSHR contents

Cache L2_bank_045:
MSHR contents

In Dram Latency Queue (total = 0): 
DRAM[22]: 16 bks, busW=16 BL=2 CL=19, tRRD=5 tCCD=1, tRCD=17 tRAS=45 tRP=19 tRC=64
n_cmd=59755 n_nop=47443 n_act=264 n_pre=248 n_ref_event=0 n_req=11944 n_rd=11944 n_rd_L2_A=0 n_write=0 n_wr_bk=0 bw_util=0.1999
n_activity=31968 dram_eff=0.3736
bk0: 768a 57666i bk1: 768a 57489i bk2: 768a 57632i bk3: 768a 57182i bk4: 744a 58030i bk5: 744a 57839i bk6: 704a 58382i bk7: 704a 58396i bk8: 704a 58471i bk9: 704a 58454i bk10: 748a 58293i bk11: 748a 58234i bk12: 768a 58240i bk13: 768a 58151i bk14: 768a 58240i bk15: 768a 58193i 

------------------------------------------------------------------------

Row_Buffer_Locality = 0.977897
Row_Buffer_Locality_read = 0.977897
Row_Buffer_Locality_write = -nan
Bank_Level_Parallism = 1.803152
Bank_Level_Parallism_Col = 1.652987
Bank_Level_Parallism_Ready = 1.174565
write_to_read_ratio_blp_rw_average = 0.000000
GrpLevelPara = 1.597572 

BW Util details:
bwutil = 0.199883 
total_CMD = 59755 
util_bw = 11944 
Wasted_Col = 8241 
Wasted_Row = 1517 
Idle = 38053 

BW Util Bottlenecks: 
RCDc_limit = 3006 
RCDWRc_limit = 0 
WTRc_limit = 0 
RTWc_limit = 0 
CCDLc_limit = 8088 
rwq = 0 
CCDLc_limit_alone = 8088 
WTRc_limit_alone = 0 
RTWc_limit_alone = 0 

Commands details: 
total_CMD = 59755 
n_nop = 47443 
Read = 11944 
Write = 0 
L2_Alloc = 0 
L2_WB = 0 
n_act = 264 
n_pre = 248 
n_ref = 0 
n_req = 11944 
total_req = 11944 

Dual Bus Interface Util: 
issued_total_row = 512 
issued_total_col = 11944 
Row_Bus_Util =  0.008568 
CoL_Bus_Util = 0.199883 
Either_Row_CoL_Bus_Util = 0.206041 
Issued_on_Two_Bus_Simul_Util = 0.002410 
issued_two_Eff = 0.011696 
queue_avg = 1.556506 


dram_util_bins: 0 0 0 0 0 0 0 0 0 0
dram_eff_bins: 0 0 0 0 0 0 0 0 0 0
mrqq: max=45 avg=1.55651
Memory Partition 23: 
Cache L2_bank_046:
MSHR contents

Cache L2_bank_047:
MSHR contents

In Dram Latency Queue (total = 0): 
DRAM[23]: 16 bks, busW=16 BL=2 CL=19, tRRD=5 tCCD=1, tRCD=17 tRAS=45 tRP=19 tRC=64
n_cmd=59755 n_nop=47466 n_act=256 n_pre=240 n_ref_event=0 n_req=11944 n_rd=11944 n_rd_L2_A=0 n_write=0 n_wr_bk=0 bw_util=0.1999
n_activity=32128 dram_eff=0.3718
bk0: 768a 57872i bk1: 768a 57561i bk2: 768a 57452i bk3: 768a 57058i bk4: 744a 58096i bk5: 744a 58100i bk6: 704a 58470i bk7: 704a 58381i bk8: 704a 58493i bk9: 704a 58443i bk10: 748a 58361i bk11: 748a 58336i bk12: 768a 58195i bk13: 768a 58133i bk14: 768a 58186i bk15: 768a 58084i 

------------------------------------------------------------------------

Row_Buffer_Locality = 0.978567
Row_Buffer_Locality_read = 0.978567
Row_Buffer_Locality_write = -nan
Bank_Level_Parallism = 1.782571
Bank_Level_Parallism_Col = 1.658715
Bank_Level_Parallism_Ready = 1.179588
write_to_read_ratio_blp_rw_average = 0.000000
GrpLevelPara = 1.599850 

BW Util details:
bwutil = 0.199883 
total_CMD = 59755 
util_bw = 11944 
Wasted_Col = 8133 
Wasted_Row = 1691 
Idle = 37987 

BW Util Bottlenecks: 
RCDc_limit = 2918 
RCDWRc_limit = 0 
WTRc_limit = 0 
RTWc_limit = 0 
CCDLc_limit = 8041 
rwq = 0 
CCDLc_limit_alone = 8041 
WTRc_limit_alone = 0 
RTWc_limit_alone = 0 

Commands details: 
total_CMD = 59755 
n_nop = 47466 
Read = 11944 
Write = 0 
L2_Alloc = 0 
L2_WB = 0 
n_act = 256 
n_pre = 240 
n_ref = 0 
n_req = 11944 
total_req = 11944 

Dual Bus Interface Util: 
issued_total_row = 496 
issued_total_col = 11944 
Row_Bus_Util =  0.008301 
CoL_Bus_Util = 0.199883 
Either_Row_CoL_Bus_Util = 0.205656 
Issued_on_Two_Bus_Simul_Util = 0.002527 
issued_two_Eff = 0.012287 
queue_avg = 1.586227 


dram_util_bins: 0 0 0 0 0 0 0 0 0 0
dram_eff_bins: 0 0 0 0 0 0 0 0 0 0
mrqq: max=53 avg=1.58623

========= L2 cache stats =========
L2_cache_bank[0]: Access = 20400, Miss = 6147, Miss_rate = 0.301, Pending_hits = 156, Reservation_fails = 0
L2_cache_bank[1]: Access = 20391, Miss = 6144, Miss_rate = 0.301, Pending_hits = 161, Reservation_fails = 0
L2_cache_bank[2]: Access = 20395, Miss = 6144, Miss_rate = 0.301, Pending_hits = 162, Reservation_fails = 0
L2_cache_bank[3]: Access = 20395, Miss = 6144, Miss_rate = 0.301, Pending_hits = 157, Reservation_fails = 0
L2_cache_bank[4]: Access = 20392, Miss = 6144, Miss_rate = 0.301, Pending_hits = 164, Reservation_fails = 0
L2_cache_bank[5]: Access = 20393, Miss = 6144, Miss_rate = 0.301, Pending_hits = 155, Reservation_fails = 0
L2_cache_bank[6]: Access = 20397, Miss = 6144, Miss_rate = 0.301, Pending_hits = 174, Reservation_fails = 0
L2_cache_bank[7]: Access = 20393, Miss = 6144, Miss_rate = 0.301, Pending_hits = 158, Reservation_fails = 0
L2_cache_bank[8]: Access = 20561, Miss = 6147, Miss_rate = 0.299, Pending_hits = 173, Reservation_fails = 401
L2_cache_bank[9]: Access = 20394, Miss = 6144, Miss_rate = 0.301, Pending_hits = 153, Reservation_fails = 0
L2_cache_bank[10]: Access = 20387, Miss = 6144, Miss_rate = 0.301, Pending_hits = 152, Reservation_fails = 0
L2_cache_bank[11]: Access = 20396, Miss = 6144, Miss_rate = 0.301, Pending_hits = 161, Reservation_fails = 0
L2_cache_bank[12]: Access = 20395, Miss = 6144, Miss_rate = 0.301, Pending_hits = 155, Reservation_fails = 0
L2_cache_bank[13]: Access = 20393, Miss = 6144, Miss_rate = 0.301, Pending_hits = 179, Reservation_fails = 0
L2_cache_bank[14]: Access = 20394, Miss = 6144, Miss_rate = 0.301, Pending_hits = 149, Reservation_fails = 0
L2_cache_bank[15]: Access = 20394, Miss = 6144, Miss_rate = 0.301, Pending_hits = 171, Reservation_fails = 0
L2_cache_bank[16]: Access = 20407, Miss = 6148, Miss_rate = 0.301, Pending_hits = 159, Reservation_fails = 0
L2_cache_bank[17]: Access = 20414, Miss = 6148, Miss_rate = 0.301, Pending_hits = 164, Reservation_fails = 0
L2_cache_bank[18]: Access = 20409, Miss = 6148, Miss_rate = 0.301, Pending_hits = 159, Reservation_fails = 0
L2_cache_bank[19]: Access = 20410, Miss = 6148, Miss_rate = 0.301, Pending_hits = 161, Reservation_fails = 0
L2_cache_bank[20]: Access = 20413, Miss = 6148, Miss_rate = 0.301, Pending_hits = 170, Reservation_fails = 0
L2_cache_bank[21]: Access = 20412, Miss = 6148, Miss_rate = 0.301, Pending_hits = 170, Reservation_fails = 0
L2_cache_bank[22]: Access = 20411, Miss = 6148, Miss_rate = 0.301, Pending_hits = 170, Reservation_fails = 0
L2_cache_bank[23]: Access = 20409, Miss = 6148, Miss_rate = 0.301, Pending_hits = 156, Reservation_fails = 0
L2_cache_bank[24]: Access = 20392, Miss = 6144, Miss_rate = 0.301, Pending_hits = 167, Reservation_fails = 0
L2_cache_bank[25]: Access = 20398, Miss = 6144, Miss_rate = 0.301, Pending_hits = 169, Reservation_fails = 0
L2_cache_bank[26]: Access = 20394, Miss = 6144, Miss_rate = 0.301, Pending_hits = 160, Reservation_fails = 0
L2_cache_bank[27]: Access = 20390, Miss = 6144, Miss_rate = 0.301, Pending_hits = 161, Reservation_fails = 0
L2_cache_bank[28]: Access = 20398, Miss = 6144, Miss_rate = 0.301, Pending_hits = 161, Reservation_fails = 0
L2_cache_bank[29]: Access = 20398, Miss = 6144, Miss_rate = 0.301, Pending_hits = 166, Reservation_fails = 0
L2_cache_bank[30]: Access = 20393, Miss = 6144, Miss_rate = 0.301, Pending_hits = 152, Reservation_fails = 0
L2_cache_bank[31]: Access = 20398, Miss = 6144, Miss_rate = 0.301, Pending_hits = 170, Reservation_fails = 0
L2_cache_bank[32]: Access = 20386, Miss = 6144, Miss_rate = 0.301, Pending_hits = 166, Reservation_fails = 0
L2_cache_bank[33]: Access = 20376, Miss = 6140, Miss_rate = 0.301, Pending_hits = 158, Reservation_fails = 0
L2_cache_bank[34]: Access = 20376, Miss = 6140, Miss_rate = 0.301, Pending_hits = 162, Reservation_fails = 0
L2_cache_bank[35]: Access = 20372, Miss = 6140, Miss_rate = 0.301, Pending_hits = 171, Reservation_fails = 0
L2_cache_bank[36]: Access = 20373, Miss = 6140, Miss_rate = 0.301, Pending_hits = 157, Reservation_fails = 0
L2_cache_bank[37]: Access = 20377, Miss = 6140, Miss_rate = 0.301, Pending_hits = 153, Reservation_fails = 0
L2_cache_bank[38]: Access = 20373, Miss = 6140, Miss_rate = 0.301, Pending_hits = 175, Reservation_fails = 0
L2_cache_bank[39]: Access = 20374, Miss = 6140, Miss_rate = 0.301, Pending_hits = 178, Reservation_fails = 0
L2_cache_bank[40]: Access = 20388, Miss = 6144, Miss_rate = 0.301, Pending_hits = 166, Reservation_fails = 0
L2_cache_bank[41]: Access = 20388, Miss = 6144, Miss_rate = 0.301, Pending_hits = 144, Reservation_fails = 0
L2_cache_bank[42]: Access = 20390, Miss = 6144, Miss_rate = 0.301, Pending_hits = 164, Reservation_fails = 0
L2_cache_bank[43]: Access = 20388, Miss = 6144, Miss_rate = 0.301, Pending_hits = 171, Reservation_fails = 0
L2_cache_bank[44]: Access = 20390, Miss = 6144, Miss_rate = 0.301, Pending_hits = 154, Reservation_fails = 0
L2_cache_bank[45]: Access = 20392, Miss = 6144, Miss_rate = 0.301, Pending_hits = 167, Reservation_fails = 0
L2_cache_bank[46]: Access = 20393, Miss = 6144, Miss_rate = 0.301, Pending_hits = 159, Reservation_fails = 0
L2_cache_bank[47]: Access = 20388, Miss = 6144, Miss_rate = 0.301, Pending_hits = 172, Reservation_fails = 0
L2_total_cache_accesses = 979040
L2_total_cache_misses = 294922
L2_total_cache_miss_rate = 0.3012
L2_total_cache_pending_hits = 7812
L2_total_cache_reservation_fails = 401
L2_total_cache_breakdown:
	L2_cache_stats_breakdown[GLOBAL_ACC_R][HIT] = 160204
	L2_cache_stats_breakdown[GLOBAL_ACC_R][HIT_RESERVED] = 7812
	L2_cache_stats_breakdown[GLOBAL_ACC_R][MISS] = 71684
	L2_cache_stats_breakdown[GLOBAL_ACC_R][RESERVATION_FAIL] = 401
	L2_cache_stats_breakdown[GLOBAL_ACC_R][SECTOR_MISS] = 215046
	L2_cache_stats_breakdown[GLOBAL_ACC_R][MSHR_HIT] = 7812
	L2_cache_stats_breakdown[LOCAL_ACC_R][HIT] = 0
	L2_cache_stats_breakdown[LOCAL_ACC_R][HIT_RESERVED] = 0
	L2_cache_stats_breakdown[LOCAL_ACC_R][MISS] = 0
	L2_cache_stats_breakdown[LOCAL_ACC_R][RESERVATION_FAIL] = 0
	L2_cache_stats_breakdown[LOCAL_ACC_R][SECTOR_MISS] = 0
	L2_cache_stats_breakdown[LOCAL_ACC_R][MSHR_HIT] = 0
	L2_cache_stats_breakdown[CONST_ACC_R][HIT] = 0
	L2_cache_stats_breakdown[CONST_ACC_R][HIT_RESERVED] = 0
	L2_cache_stats_breakdown[CONST_ACC_R][MISS] = 0
	L2_cache_stats_breakdown[CONST_ACC_R][RESERVATION_FAIL] = 0
	L2_cache_stats_breakdown[CONST_ACC_R][SECTOR_MISS] = 0
	L2_cache_stats_breakdown[CONST_ACC_R][MSHR_HIT] = 0
	L2_cache_stats_breakdown[TEXTURE_ACC_R][HIT] = 0
	L2_cache_stats_breakdown[TEXTURE_ACC_R][HIT_RESERVED] = 0
	L2_cache_stats_breakdown[TEXTURE_ACC_R][MISS] = 0
	L2_cache_stats_breakdown[TEXTURE_ACC_R][RESERVATION_FAIL] = 0
	L2_cache_stats_breakdown[TEXTURE_ACC_R][SECTOR_MISS] = 0
	L2_cache_stats_breakdown[TEXTURE_ACC_R][MSHR_HIT] = 0
	L2_cache_stats_breakdown[GLOBAL_ACC_W][HIT] = 516102
	L2_cache_stats_breakdown[GLOBAL_ACC_W][HIT_RESERVED] = 0
	L2_cache_stats_breakdown[GLOBAL_ACC_W][MISS] = 2048
	L2_cache_stats_breakdown[GLOBAL_ACC_W][RESERVATION_FAIL] = 0
	L2_cache_stats_breakdown[GLOBAL_ACC_W][SECTOR_MISS] = 6144
	L2_cache_stats_breakdown[GLOBAL_ACC_W][MSHR_HIT] = 0
	L2_cache_stats_breakdown[LOCAL_ACC_W][HIT] = 0
	L2_cache_stats_breakdown[LOCAL_ACC_W][HIT_RESERVED] = 0
	L2_cache_stats_breakdown[LOCAL_ACC_W][MISS] = 0
	L2_cache_stats_breakdown[LOCAL_ACC_W][RESERVATION_FAIL] = 0
	L2_cache_stats_breakdown[LOCAL_ACC_W][SECTOR_MISS] = 0
	L2_cache_stats_breakdown[LOCAL_ACC_W][MSHR_HIT] = 0
	L2_cache_stats_breakdown[L1_WRBK_ACC][HIT] = 0
	L2_cache_stats_breakdown[L1_WRBK_ACC][HIT_RESERVED] = 0
	L2_cache_stats_breakdown[L1_WRBK_ACC][MISS] = 0
	L2_cache_stats_breakdown[L1_WRBK_ACC][RESERVATION_FAIL] = 0
	L2_cache_stats_breakdown[L1_WRBK_ACC][SECTOR_MISS] = 0
	L2_cache_stats_breakdown[L1_WRBK_ACC][MSHR_HIT] = 0
	L2_cache_stats_breakdown[L2_WRBK_ACC][HIT] = 0
	L2_cache_stats_breakdown[L2_WRBK_ACC][HIT_RESERVED] = 0
	L2_cache_stats_breakdown[L2_WRBK_ACC][MISS] = 0
	L2_cache_stats_breakdown[L2_WRBK_ACC][RESERVATION_FAIL] = 0
	L2_cache_stats_breakdown[L2_WRBK_ACC][SECTOR_MISS] = 0
	L2_cache_stats_breakdown[L2_WRBK_ACC][MSHR_HIT] = 0
	L2_cache_stats_breakdown[INST_ACC_R][HIT] = 0
	L2_cache_stats_breakdown[INST_ACC_R][HIT_RESERVED] = 0
	L2_cache_stats_breakdown[INST_ACC_R][MISS] = 0
	L2_cache_stats_breakdown[INST_ACC_R][RESERVATION_FAIL] = 0
	L2_cache_stats_breakdown[INST_ACC_R][SECTOR_MISS] = 0
	L2_cache_stats_breakdown[INST_ACC_R][MSHR_HIT] = 0
	L2_cache_stats_breakdown[L1_WR_ALLOC_R][HIT] = 0
	L2_cache_stats_breakdown[L1_WR_ALLOC_R][HIT_RESERVED] = 0
	L2_cache_stats_breakdown[L1_WR_ALLOC_R][MISS] = 0
	L2_cache_stats_breakdown[L1_WR_ALLOC_R][RESERVATION_FAIL] = 0
	L2_cache_stats_breakdown[L1_WR_ALLOC_R][SECTOR_MISS] = 0
	L2_cache_stats_breakdown[L1_WR_ALLOC_R][MSHR_HIT] = 0
	L2_cache_stats_breakdown[L2_WR_ALLOC_R][HIT] = 0
	L2_cache_stats_breakdown[L2_WR_ALLOC_R][HIT_RESERVED] = 0
	L2_cache_stats_breakdown[L2_WR_ALLOC_R][MISS] = 0
	L2_cache_stats_breakdown[L2_WR_ALLOC_R][RESERVATION_FAIL] = 0
	L2_cache_stats_breakdown[L2_WR_ALLOC_R][SECTOR_MISS] = 0
	L2_cache_stats_breakdown[L2_WR_ALLOC_R][MSHR_HIT] = 0
	L2_cache_stats_breakdown[GLOBAL_ACC_R][TOTAL_ACCESS] = 454746
	L2_cache_stats_breakdown[GLOBAL_ACC_W][TOTAL_ACCESS] = 524294
L2_total_cache_reservation_fail_breakdown:
	L2_cache_stats_fail_breakdown[GLOBAL_ACC_R][MSHR_MERGE_ENRTY_FAIL] = 401
L2_cache_data_port_util = 0.199
L2_cache_fill_port_util = 0.084

icnt_total_pkts_mem_to_simt=979040
icnt_total_pkts_simt_to_mem=979040
LD_mem_lat_dist  0 0 0 0 0 0 0 0 0 0 0 0 0 0 0 0 0 0 0 0 0 0 0 0 0 0 0
ST_mem_lat_dist  0 0 0 0 0 0 0 0 0 0 0 0 0 0 0 0 0 0 0 0 0 0 0 0 0 0 0
----------------------------Interconnect-DETAILS------------------------------
Req_Network_injected_packets_num = 979040
Req_Network_cycles = 70821
Req_Network_injected_packets_per_cycle =      13.8241 
Req_Network_conflicts_per_cycle =       9.6981
Req_Network_conflicts_per_cycle_util =      13.6290
Req_Bank_Level_Parallism =      19.4273
Req_Network_in_buffer_full_per_cycle =       0.0000
Req_Network_in_buffer_avg_util =      69.6418
Req_Network_out_buffer_full_per_cycle =       0.0000
Req_Network_out_buffer_avg_util =       0.3517

Reply_Network_injected_packets_num = 979040
Reply_Network_cycles = 70821
Reply_Network_injected_packets_per_cycle =       13.8241
Reply_Network_conflicts_per_cycle =        9.8388
Reply_Network_conflicts_per_cycle_util =      13.8264
Reply_Bank_Level_Parallism =      19.4269
Reply_Network_in_buffer_full_per_cycle =       0.0000
Reply_Network_in_buffer_avg_util =      22.2485
Reply_Network_out_buffer_full_per_cycle =       0.0000
Reply_Network_out_buffer_avg_util =       0.2469
----------------------------END-of-Interconnect-DETAILS-----------------------


gpgpu_simulation_time = 0 days, 0 hrs, 12 min, 14 sec (734 sec)
gpgpu_simulation_rate = 190983 (inst/sec)
gpgpu_simulation_rate = 96 (cycle/sec)
gpgpu_silicon_slowdown = 15000000x
GPGPU-Sim: *** simulation thread exiting ***
GPGPU-Sim: *** exit detected ***
