[fw] job 7206749574443657141 header loaded for kernel: /spapad/accel-sim-clean/sim_run_11.1_new_idle_validation/backprop-rodinia-3.1/65536/A30_MIG_4g.24gb-Accelwattch_SASS_SIM/traces/kernel-1-ctx_0x56237acb3f90.traceg.xz (uid=1)
[fw] launching kernel (job 7206749574443657141) name: _Z22bpnn_layerforward_CUDAPfS_S_S_ii uid: 1 local_stream_id: 0 global_stream_id: 1
GPGPU-Sim uArch: Shader 14 bind to kernel 1 '_Z22bpnn_layerforward_CUDAPfS_S_S_ii'
GPGPU-Sim uArch: Shader 15 bind to kernel 1 '_Z22bpnn_layerforward_CUDAPfS_S_S_ii'
GPGPU-Sim uArch: Shader 16 bind to kernel 1 '_Z22bpnn_layerforward_CUDAPfS_S_S_ii'
GPGPU-Sim uArch: Shader 17 bind to kernel 1 '_Z22bpnn_layerforward_CUDAPfS_S_S_ii'
GPGPU-Sim uArch: Shader 18 bind to kernel 1 '_Z22bpnn_layerforward_CUDAPfS_S_S_ii'
GPGPU-Sim uArch: Shader 19 bind to kernel 1 '_Z22bpnn_layerforward_CUDAPfS_S_S_ii'
GPGPU-Sim uArch: Shader 20 bind to kernel 1 '_Z22bpnn_layerforward_CUDAPfS_S_S_ii'
GPGPU-Sim uArch: Shader 21 bind to kernel 1 '_Z22bpnn_layerforward_CUDAPfS_S_S_ii'
GPGPU-Sim uArch: Shader 22 bind to kernel 1 '_Z22bpnn_layerforward_CUDAPfS_S_S_ii'
GPGPU-Sim uArch: Shader 23 bind to kernel 1 '_Z22bpnn_layerforward_CUDAPfS_S_S_ii'
GPGPU-Sim uArch: Shader 24 bind to kernel 1 '_Z22bpnn_layerforward_CUDAPfS_S_S_ii'
GPGPU-Sim uArch: Shader 25 bind to kernel 1 '_Z22bpnn_layerforward_CUDAPfS_S_S_ii'
GPGPU-Sim uArch: Shader 26 bind to kernel 1 '_Z22bpnn_layerforward_CUDAPfS_S_S_ii'
GPGPU-Sim uArch: Shader 27 bind to kernel 1 '_Z22bpnn_layerforward_CUDAPfS_S_S_ii'
kernel_name = _Z22bpnn_layerforward_CUDAPfS_S_S_ii
kernel_launch_uid = 1
kernel_stream_id = 1
gpu_sim_cycle = 122559
gpu_sim_insn = 95092736
gpu_sim_insn calculated by classic = 95092736
gpu_ipc =     775.8936
gpu_tot_sim_cycle = 122559
gpu_tot_sim_insn = 95092736
gpu_tot_ipc =     775.8936
gpu_tot_issued_cta = 4096
gpu_occupancy = 98.7333% 
gpu_tot_occupancy = 98.7333% 
max_total_param_size = 0
gpu_stall_dramfull = 0
gpu_stall_icnt2sh    = 0
partiton_level_parallism =       2.8741
partiton_level_parallism_total  =       2.8741
partiton_level_parallism_util =       3.2180
partiton_level_parallism_util_total  =       3.2180
L2_BW  =     132.4390 GB/Sec
L2_BW_total  =     132.4390 GB/Sec
L2_BW  calculated_by_classic=     132.4390 GB/Sec
L2_BW_total  calculated_by_classic=     132.4390 GB/Sec
gpu_total_sim_rate=245717

========= Core cache stats =========
L1I_cache:
	L1I_cache_total_cache_accesses = 0
	L1I_cache_total_cache_misses = 0
	L1I_cache_total_cache_pending_hits = 0
	L1I_cache_total_cache_reservation_fails = 0
L1D_cache:
	L1D_cache_core[0]: Access = 0, Miss = 0, Miss_rate = -nan, Pending_hits = 0, Reservation_fails = 0
	L1D_cache_core[1]: Access = 0, Miss = 0, Miss_rate = -nan, Pending_hits = 0, Reservation_fails = 0
	L1D_cache_core[2]: Access = 0, Miss = 0, Miss_rate = -nan, Pending_hits = 0, Reservation_fails = 0
	L1D_cache_core[3]: Access = 0, Miss = 0, Miss_rate = -nan, Pending_hits = 0, Reservation_fails = 0
	L1D_cache_core[4]: Access = 0, Miss = 0, Miss_rate = -nan, Pending_hits = 0, Reservation_fails = 0
	L1D_cache_core[5]: Access = 0, Miss = 0, Miss_rate = -nan, Pending_hits = 0, Reservation_fails = 0
	L1D_cache_core[6]: Access = 0, Miss = 0, Miss_rate = -nan, Pending_hits = 0, Reservation_fails = 0
	L1D_cache_core[7]: Access = 0, Miss = 0, Miss_rate = -nan, Pending_hits = 0, Reservation_fails = 0
	L1D_cache_core[8]: Access = 0, Miss = 0, Miss_rate = -nan, Pending_hits = 0, Reservation_fails = 0
	L1D_cache_core[9]: Access = 0, Miss = 0, Miss_rate = -nan, Pending_hits = 0, Reservation_fails = 0
	L1D_cache_core[10]: Access = 0, Miss = 0, Miss_rate = -nan, Pending_hits = 0, Reservation_fails = 0
	L1D_cache_core[11]: Access = 0, Miss = 0, Miss_rate = -nan, Pending_hits = 0, Reservation_fails = 0
	L1D_cache_core[12]: Access = 0, Miss = 0, Miss_rate = -nan, Pending_hits = 0, Reservation_fails = 0
	L1D_cache_core[13]: Access = 0, Miss = 0, Miss_rate = -nan, Pending_hits = 0, Reservation_fails = 0
	L1D_cache_core[14]: Access = 28616, Miss = 11678, Miss_rate = 0.408, Pending_hits = 2950, Reservation_fails = 10457
	L1D_cache_core[15]: Access = 28616, Miss = 11680, Miss_rate = 0.408, Pending_hits = 2646, Reservation_fails = 11941
	L1D_cache_core[16]: Access = 28812, Miss = 11758, Miss_rate = 0.408, Pending_hits = 3044, Reservation_fails = 10795
	L1D_cache_core[17]: Access = 28616, Miss = 11680, Miss_rate = 0.408, Pending_hits = 2924, Reservation_fails = 11567
	L1D_cache_core[18]: Access = 28616, Miss = 11678, Miss_rate = 0.408, Pending_hits = 2927, Reservation_fails = 10220
	L1D_cache_core[19]: Access = 28812, Miss = 11760, Miss_rate = 0.408, Pending_hits = 2918, Reservation_fails = 11478
	L1D_cache_core[20]: Access = 28714, Miss = 11718, Miss_rate = 0.408, Pending_hits = 2904, Reservation_fails = 11356
	L1D_cache_core[21]: Access = 28616, Miss = 11680, Miss_rate = 0.408, Pending_hits = 2937, Reservation_fails = 11070
	L1D_cache_core[22]: Access = 28616, Miss = 11680, Miss_rate = 0.408, Pending_hits = 2947, Reservation_fails = 10140
	L1D_cache_core[23]: Access = 28714, Miss = 11720, Miss_rate = 0.408, Pending_hits = 2583, Reservation_fails = 11760
	L1D_cache_core[24]: Access = 28616, Miss = 11680, Miss_rate = 0.408, Pending_hits = 2527, Reservation_fails = 10826
	L1D_cache_core[25]: Access = 28616, Miss = 11680, Miss_rate = 0.408, Pending_hits = 2842, Reservation_fails = 9499
	L1D_cache_core[26]: Access = 28714, Miss = 11720, Miss_rate = 0.408, Pending_hits = 2839, Reservation_fails = 11173
	L1D_cache_core[27]: Access = 28714, Miss = 11720, Miss_rate = 0.408, Pending_hits = 2815, Reservation_fails = 10642
	L1D_cache_core[28]: Access = 0, Miss = 0, Miss_rate = -nan, Pending_hits = 0, Reservation_fails = 0
	L1D_cache_core[29]: Access = 0, Miss = 0, Miss_rate = -nan, Pending_hits = 0, Reservation_fails = 0
	L1D_cache_core[30]: Access = 0, Miss = 0, Miss_rate = -nan, Pending_hits = 0, Reservation_fails = 0
	L1D_cache_core[31]: Access = 0, Miss = 0, Miss_rate = -nan, Pending_hits = 0, Reservation_fails = 0
	L1D_cache_core[32]: Access = 0, Miss = 0, Miss_rate = -nan, Pending_hits = 0, Reservation_fails = 0
	L1D_cache_core[33]: Access = 0, Miss = 0, Miss_rate = -nan, Pending_hits = 0, Reservation_fails = 0
	L1D_cache_core[34]: Access = 0, Miss = 0, Miss_rate = -nan, Pending_hits = 0, Reservation_fails = 0
	L1D_cache_core[35]: Access = 0, Miss = 0, Miss_rate = -nan, Pending_hits = 0, Reservation_fails = 0
	L1D_cache_core[36]: Access = 0, Miss = 0, Miss_rate = -nan, Pending_hits = 0, Reservation_fails = 0
	L1D_cache_core[37]: Access = 0, Miss = 0, Miss_rate = -nan, Pending_hits = 0, Reservation_fails = 0
	L1D_cache_core[38]: Access = 0, Miss = 0, Miss_rate = -nan, Pending_hits = 0, Reservation_fails = 0
	L1D_cache_core[39]: Access = 0, Miss = 0, Miss_rate = -nan, Pending_hits = 0, Reservation_fails = 0
	L1D_cache_core[40]: Access = 0, Miss = 0, Miss_rate = -nan, Pending_hits = 0, Reservation_fails = 0
	L1D_cache_core[41]: Access = 0, Miss = 0, Miss_rate = -nan, Pending_hits = 0, Reservation_fails = 0
	L1D_cache_core[42]: Access = 0, Miss = 0, Miss_rate = -nan, Pending_hits = 0, Reservation_fails = 0
	L1D_cache_core[43]: Access = 0, Miss = 0, Miss_rate = -nan, Pending_hits = 0, Reservation_fails = 0
	L1D_cache_core[44]: Access = 0, Miss = 0, Miss_rate = -nan, Pending_hits = 0, Reservation_fails = 0
	L1D_cache_core[45]: Access = 0, Miss = 0, Miss_rate = -nan, Pending_hits = 0, Reservation_fails = 0
	L1D_cache_core[46]: Access = 0, Miss = 0, Miss_rate = -nan, Pending_hits = 0, Reservation_fails = 0
	L1D_cache_core[47]: Access = 0, Miss = 0, Miss_rate = -nan, Pending_hits = 0, Reservation_fails = 0
	L1D_cache_core[48]: Access = 0, Miss = 0, Miss_rate = -nan, Pending_hits = 0, Reservation_fails = 0
	L1D_cache_core[49]: Access = 0, Miss = 0, Miss_rate = -nan, Pending_hits = 0, Reservation_fails = 0
	L1D_cache_core[50]: Access = 0, Miss = 0, Miss_rate = -nan, Pending_hits = 0, Reservation_fails = 0
	L1D_cache_core[51]: Access = 0, Miss = 0, Miss_rate = -nan, Pending_hits = 0, Reservation_fails = 0
	L1D_cache_core[52]: Access = 0, Miss = 0, Miss_rate = -nan, Pending_hits = 0, Reservation_fails = 0
	L1D_cache_core[53]: Access = 0, Miss = 0, Miss_rate = -nan, Pending_hits = 0, Reservation_fails = 0
	L1D_cache_core[54]: Access = 0, Miss = 0, Miss_rate = -nan, Pending_hits = 0, Reservation_fails = 0
	L1D_cache_core[55]: Access = 0, Miss = 0, Miss_rate = -nan, Pending_hits = 0, Reservation_fails = 0
	L1D_total_cache_accesses = 401408
	L1D_total_cache_misses = 163832
	L1D_total_cache_miss_rate = 0.4081
	L1D_total_cache_pending_hits = 39803
	L1D_total_cache_reservation_fails = 152924
	L1D_cache_data_port_util = 0.000
	L1D_cache_fill_port_util = 0.000
L1C_cache:
	L1C_cache_total_cache_accesses = 0
	L1C_cache_total_cache_misses = 0
	L1C_cache_total_cache_pending_hits = 0
	L1C_cache_total_cache_reservation_fails = 0
L1T_cache:
	L1T_cache_total_cache_accesses = 0
	L1T_cache_total_cache_misses = 0
	L1T_cache_total_cache_pending_hits = 0
	L1T_cache_total_cache_reservation_fails = 0

Total_core_cache_stats:
	Total_core_cache_stats_breakdown[GLOBAL_ACC_R][HIT] = 9357
	Total_core_cache_stats_breakdown[GLOBAL_ACC_R][HIT_RESERVED] = 39803
	Total_core_cache_stats_breakdown[GLOBAL_ACC_R][MISS] = 45046
	Total_core_cache_stats_breakdown[GLOBAL_ACC_R][RESERVATION_FAIL] = 82624
	Total_core_cache_stats_breakdown[GLOBAL_ACC_R][SECTOR_MISS] = 110594
	Total_core_cache_stats_breakdown[GLOBAL_ACC_R][MSHR_HIT] = 39803
	Total_core_cache_stats_breakdown[LOCAL_ACC_R][HIT] = 0
	Total_core_cache_stats_breakdown[LOCAL_ACC_R][HIT_RESERVED] = 0
	Total_core_cache_stats_breakdown[LOCAL_ACC_R][MISS] = 0
	Total_core_cache_stats_breakdown[LOCAL_ACC_R][RESERVATION_FAIL] = 0
	Total_core_cache_stats_breakdown[LOCAL_ACC_R][SECTOR_MISS] = 0
	Total_core_cache_stats_breakdown[LOCAL_ACC_R][MSHR_HIT] = 0
	Total_core_cache_stats_breakdown[CONST_ACC_R][HIT] = 0
	Total_core_cache_stats_breakdown[CONST_ACC_R][HIT_RESERVED] = 0
	Total_core_cache_stats_breakdown[CONST_ACC_R][MISS] = 0
	Total_core_cache_stats_breakdown[CONST_ACC_R][RESERVATION_FAIL] = 0
	Total_core_cache_stats_breakdown[CONST_ACC_R][SECTOR_MISS] = 0
	Total_core_cache_stats_breakdown[CONST_ACC_R][MSHR_HIT] = 0
	Total_core_cache_stats_breakdown[TEXTURE_ACC_R][HIT] = 0
	Total_core_cache_stats_breakdown[TEXTURE_ACC_R][HIT_RESERVED] = 0
	Total_core_cache_stats_breakdown[TEXTURE_ACC_R][MISS] = 0
	Total_core_cache_stats_breakdown[TEXTURE_ACC_R][RESERVATION_FAIL] = 0
	Total_core_cache_stats_breakdown[TEXTURE_ACC_R][SECTOR_MISS] = 0
	Total_core_cache_stats_breakdown[TEXTURE_ACC_R][MSHR_HIT] = 0
	Total_core_cache_stats_breakdown[GLOBAL_ACC_W][HIT] = 188416
	Total_core_cache_stats_breakdown[GLOBAL_ACC_W][HIT_RESERVED] = 0
	Total_core_cache_stats_breakdown[GLOBAL_ACC_W][MISS] = 4094
	Total_core_cache_stats_breakdown[GLOBAL_ACC_W][RESERVATION_FAIL] = 70300
	Total_core_cache_stats_breakdown[GLOBAL_ACC_W][SECTOR_MISS] = 4098
	Total_core_cache_stats_breakdown[GLOBAL_ACC_W][MSHR_HIT] = 0
	Total_core_cache_stats_breakdown[LOCAL_ACC_W][HIT] = 0
	Total_core_cache_stats_breakdown[LOCAL_ACC_W][HIT_RESERVED] = 0
	Total_core_cache_stats_breakdown[LOCAL_ACC_W][MISS] = 0
	Total_core_cache_stats_breakdown[LOCAL_ACC_W][RESERVATION_FAIL] = 0
	Total_core_cache_stats_breakdown[LOCAL_ACC_W][SECTOR_MISS] = 0
	Total_core_cache_stats_breakdown[LOCAL_ACC_W][MSHR_HIT] = 0
	Total_core_cache_stats_breakdown[L1_WRBK_ACC][HIT] = 0
	Total_core_cache_stats_breakdown[L1_WRBK_ACC][HIT_RESERVED] = 0
	Total_core_cache_stats_breakdown[L1_WRBK_ACC][MISS] = 0
	Total_core_cache_stats_breakdown[L1_WRBK_ACC][RESERVATION_FAIL] = 0
	Total_core_cache_stats_breakdown[L1_WRBK_ACC][SECTOR_MISS] = 0
	Total_core_cache_stats_breakdown[L1_WRBK_ACC][MSHR_HIT] = 0
	Total_core_cache_stats_breakdown[L2_WRBK_ACC][HIT] = 0
	Total_core_cache_stats_breakdown[L2_WRBK_ACC][HIT_RESERVED] = 0
	Total_core_cache_stats_breakdown[L2_WRBK_ACC][MISS] = 0
	Total_core_cache_stats_breakdown[L2_WRBK_ACC][RESERVATION_FAIL] = 0
	Total_core_cache_stats_breakdown[L2_WRBK_ACC][SECTOR_MISS] = 0
	Total_core_cache_stats_breakdown[L2_WRBK_ACC][MSHR_HIT] = 0
	Total_core_cache_stats_breakdown[INST_ACC_R][HIT] = 0
	Total_core_cache_stats_breakdown[INST_ACC_R][HIT_RESERVED] = 0
	Total_core_cache_stats_breakdown[INST_ACC_R][MISS] = 0
	Total_core_cache_stats_breakdown[INST_ACC_R][RESERVATION_FAIL] = 0
	Total_core_cache_stats_breakdown[INST_ACC_R][SECTOR_MISS] = 0
	Total_core_cache_stats_breakdown[INST_ACC_R][MSHR_HIT] = 0
	Total_core_cache_stats_breakdown[L1_WR_ALLOC_R][HIT] = 0
	Total_core_cache_stats_breakdown[L1_WR_ALLOC_R][HIT_RESERVED] = 0
	Total_core_cache_stats_breakdown[L1_WR_ALLOC_R][MISS] = 0
	Total_core_cache_stats_breakdown[L1_WR_ALLOC_R][RESERVATION_FAIL] = 0
	Total_core_cache_stats_breakdown[L1_WR_ALLOC_R][SECTOR_MISS] = 0
	Total_core_cache_stats_breakdown[L1_WR_ALLOC_R][MSHR_HIT] = 0
	Total_core_cache_stats_breakdown[L2_WR_ALLOC_R][HIT] = 0
	Total_core_cache_stats_breakdown[L2_WR_ALLOC_R][HIT_RESERVED] = 0
	Total_core_cache_stats_breakdown[L2_WR_ALLOC_R][MISS] = 0
	Total_core_cache_stats_breakdown[L2_WR_ALLOC_R][RESERVATION_FAIL] = 0
	Total_core_cache_stats_breakdown[L2_WR_ALLOC_R][SECTOR_MISS] = 0
	Total_core_cache_stats_breakdown[L2_WR_ALLOC_R][MSHR_HIT] = 0
	Total_core_cache_stats_breakdown[GLOBAL_ACC_R][TOTAL_ACCESS] = 204800
	Total_core_cache_stats_breakdown[GLOBAL_ACC_W][TOTAL_ACCESS] = 196608

Total_core_cache_fail_stats:
	Total_core_cache_fail_stats_breakdown[GLOBAL_ACC_R][MISS_QUEUE_FULL] = 82624
	Total_core_cache_fail_stats_breakdown[GLOBAL_ACC_W][MISS_QUEUE_FULL] = 70300
ctas_completed 4096, Shader 14 warp_id issue ditsribution:
warp_id:
0, 1, 2, 3, 4, 5, 6, 7, 8, 9, 10, 11, 12, 13, 14, 15, 16, 17, 18, 19, 20, 21, 22, 23, 24, 25, 26, 27, 28, 29, 30, 31, 32, 33, 34, 35, 36, 37, 38, 39, 40, 41, 42, 43, 44, 45, 46, 47, 48, 49, 50, 51, 52, 53, 54, 55, 56, 57, 58, 59, 60, 61, 62, 63, 
distro:
4699, 4699, 4699, 4699, 4699, 4699, 4699, 4699, 4699, 4699, 4699, 4699, 4699, 4699, 4699, 4699, 4699, 4699, 4699, 4699, 4699, 4699, 4699, 4699, 4699, 4699, 4699, 4699, 4699, 4699, 4699, 4699, 4572, 4572, 4572, 4572, 4572, 4572, 4572, 4572, 4572, 4572, 4572, 4572, 4572, 4572, 4572, 4572, 4572, 4572, 4572, 4572, 4572, 4572, 4572, 4572, 4572, 4572, 4572, 4572, 4572, 4572, 4572, 4572, 
gpgpu_n_tot_thrd_icount = 133169152
gpgpu_n_tot_w_icount = 4161536
gpgpu_n_stall_shd_mem = 65536
gpgpu_n_mem_read_local = 0
gpgpu_n_mem_write_local = 0
gpgpu_n_mem_read_global = 155640
gpgpu_n_mem_write_global = 196608
gpgpu_n_mem_texture = 0
gpgpu_n_mem_const = 0
gpgpu_n_load_insn  = 1114112
gpgpu_n_store_insn = 1114112
gpgpu_n_shmem_insn = 8323072
gpgpu_n_sstarr_insn = 0
gpgpu_n_tex_insn = 0
gpgpu_n_const_mem_insn = 0
gpgpu_n_param_mem_insn = 0
gpgpu_n_shmem_bkconflict = 0
gpgpu_n_l1cache_bkconflict = 0
gpgpu_n_intrawarp_mshr_merge = 0
gpgpu_n_cmem_portconflict = 0
gpgpu_stall_shd_mem[c_mem][resource_stall] = 0
gpgpu_stall_shd_mem[s_mem][bk_conf] = 0
gpgpu_stall_shd_mem[gl_mem][resource_stall] = 0
gpgpu_stall_shd_mem[gl_mem][coal_stall] = 65536
gpgpu_stall_shd_mem[gl_mem][data_port_stall] = 0
gpu_reg_bank_conflict_stalls = 0
Warp Occupancy Distribution:
Stall:2803211	W0_Idle:14085	W0_Scoreboard:44636	W1:0	W2:262144	W3:0	W4:0	W5:0	W6:0	W7:0	W8:0	W9:0	W10:0	W11:0	W12:0	W13:0	W14:0	W15:0	W16:475136	W17:0	W18:0	W19:0	W20:0	W21:0	W22:0	W23:0	W24:0	W25:0	W26:0	W27:0	W28:0	W29:0	W30:32768	W31:0	W32:2686976
single_issue_nums: WS0:1040384	WS1:1040384	WS2:1040384	WS3:1040384	
dual_issue_nums: WS0:0	WS1:0	WS2:0	WS3:0	
traffic_breakdown_core_to_mem[GLOBAL_ACC_R] = 1245120 {8:155640,}
traffic_breakdown_core_to_mem[GLOBAL_ACC_W] = 7864320 {40:196608,}
traffic_breakdown_mem_to_core[GLOBAL_ACC_R] = 6225600 {40:155640,}
traffic_breakdown_mem_to_core[GLOBAL_ACC_W] = 1572864 {8:196608,}
maxmflatency = 909 
max_icnt2mem_latency = 222 
maxmrqlatency = 252 
max_icnt2sh_latency = 88 
averagemflatency = 342 
avg_icnt2mem_latency = 54 
avg_icnt2sh_latency = 6 
mrq_lat_table:54837 	36484 	23488 	13992 	5705 	6847 	5708 	397 	0 	0 	0 	0 	0 	0 	0 	0 	0 	0 	0 	0 	0 	0 	0 	0 	0 	0 	0 	0 	0 	0 	0 	0 	
dq_lat_table:0 	0 	0 	0 	0 	0 	0 	0 	0 	0 	0 	0 	0 	0 	0 	0 	0 	0 	0 	0 	0 	0 	0 	0 	0 	0 	0 	0 	0 	0 	0 	0 	
mf_lat_table:0 	0 	0 	0 	0 	0 	0 	113589 	229488 	9171 	0 	0 	0 	0 	0 	0 	0 	0 	0 	0 	0 	0 	0 	0 	0 	0 	0 	0 	0 	0 	0 	0 	
icnt2mem_lat_table:0 	0 	0 	0 	0 	281989 	69775 	484 	0 	0 	0 	0 	0 	0 	0 	0 	0 	0 	0 	0 	0 	0 	0 	0 	
icnt2sh_lat_table:0 	202830 	68805 	44790 	28135 	7595 	93 	0 	0 	0 	0 	0 	0 	0 	0 	0 	0 	0 	0 	0 	0 	0 	0 	0 	
mf_lat_pw_table:0 	0 	0 	0 	0 	0 	0 	1 	223 	1 	0 	0 	0 	0 	0 	0 	0 	0 	0 	0 	0 	0 	0 	0 	0 	0 	0 	0 	0 	0 	0 	0 	
maximum concurrent accesses to same row:
dram[0]:         0         0         0         0         0         0         0         0         0         0         0         0         0         0         0         0 
dram[1]:         0         0         0         0         0         0         0         0         0         0         0         0         0         0         0         0 
dram[2]:         0         0         0         0         0         0         0         0         0         0         0         0         0         0         0         0 
dram[3]:         0         0         0         0         0         0         0         0         0         0         0         0         0         0         0         0 
dram[4]:         0         0         0         0         0         0         0         0         0         0         0         0         0         0         0         0 
dram[5]:         0         0         0         0         0         0         0         0         0         0         0         0         0         0         0         0 
dram[6]:       256       256       256       256       256       256       256       256       256       256       256       256       256       256       256       256 
dram[7]:       256       256       256       256       256       256       256       256       256       256       256       256       256       256       256       256 
dram[8]:       256       256       256       256       256       256       256       256       256       256       256       256       256       256       256       256 
dram[9]:       256       256       256       256       256       256       256       256       256       256       256       256       256       256       256       256 
dram[10]:       256       256       256       256       256       256       256       256       256       256       256       256       256       256       256       256 
dram[11]:       256       256       256       256       256       256       256       256       256       256       256       256       256       256       256       256 
dram[12]:         0         0         0         0         0         0         0         0         0         0         0         0         0         0         0         0 
dram[13]:         0         0         0         0         0         0         0         0         0         0         0         0         0         0         0         0 
dram[14]:         0         0         0         0         0         0         0         0         0         0         0         0         0         0         0         0 
dram[15]:         0         0         0         0         0         0         0         0         0         0         0         0         0         0         0         0 
dram[16]:         0         0         0         0         0         0         0         0         0         0         0         0         0         0         0         0 
dram[17]:         0         0         0         0         0         0         0         0         0         0         0         0         0         0         0         0 
dram[18]:         0         0         0         0         0         0         0         0         0         0         0         0         0         0         0         0 
dram[19]:         0         0         0         0         0         0         0         0         0         0         0         0         0         0         0         0 
dram[20]:         0         0         0         0         0         0         0         0         0         0         0         0         0         0         0         0 
dram[21]:         0         0         0         0         0         0         0         0         0         0         0         0         0         0         0         0 
dram[22]:         0         0         0         0         0         0         0         0         0         0         0         0         0         0         0         0 
dram[23]:         0         0         0         0         0         0         0         0         0         0         0         0         0         0         0         0 
maximum service time to same row:
dram[0]:         0         0         0         0         0         0         0         0         0         0         0         0         0         0         0         0 
dram[1]:         0         0         0         0         0         0         0         0         0         0         0         0         0         0         0         0 
dram[2]:         0         0         0         0         0         0         0         0         0         0         0         0         0         0         0         0 
dram[3]:         0         0         0         0         0         0         0         0         0         0         0         0         0         0         0         0 
dram[4]:         0         0         0         0         0         0         0         0         0         0         0         0         0         0         0         0 
dram[5]:         0         0         0         0         0         0         0         0         0         0         0         0         0         0         0         0 
dram[6]:     20028     20051     19867     19888     19761     19725     19817     19938     19859     19860     19889     19872     20271     20564     19981     19973 
dram[7]:     20048     20059     19881     19876     19736     19750     19946     19933     19854     19852     19898     20043     20567     20594     19973     19985 
dram[8]:     20024     20031     19871     19866     19734     19900     19924     19909     19835     19808     20045     20083     20594     20578     19975     19982 
dram[9]:     20018     20007     19875     19853     19900     19863     19901     19942     19885     19912     20013     20004     20606     20623     19945     19936 
dram[10]:     19923     19891     19853     19929     19851     19852     19943     19946     19905     19917     19981     19969     20602     20607     20013     20026 
dram[11]:     20053     20050     19920     19919     19836     19797     19964     19942     19928     19860     20072     20049     20581     20578     19999     19991 
dram[12]:         0         0         0         0         0         0         0         0         0         0         0         0         0         0         0         0 
dram[13]:         0         0         0         0         0         0         0         0         0         0         0         0         0         0         0         0 
dram[14]:         0         0         0         0         0         0         0         0         0         0         0         0         0         0         0         0 
dram[15]:         0         0         0         0         0         0         0         0         0         0         0         0         0         0         0         0 
dram[16]:         0         0         0         0         0         0         0         0         0         0         0         0         0         0         0         0 
dram[17]:         0         0         0         0         0         0         0         0         0         0         0         0         0         0         0         0 
dram[18]:         0         0         0         0         0         0         0         0         0         0         0         0         0         0         0         0 
dram[19]:         0         0         0         0         0         0         0         0         0         0         0         0         0         0         0         0 
dram[20]:         0         0         0         0         0         0         0         0         0         0         0         0         0         0         0         0 
dram[21]:         0         0         0         0         0         0         0         0         0         0         0         0         0         0         0         0 
dram[22]:         0         0         0         0         0         0         0         0         0         0         0         0         0         0         0         0 
dram[23]:         0         0         0         0         0         0         0         0         0         0         0         0         0         0         0         0 
average row accesses per activate:
dram[0]:  0.000000  0.000000  0.000000  0.000000  0.000000  0.000000  0.000000  0.000000  0.000000  0.000000  0.000000  0.000000  0.000000  0.000000  0.000000  0.000000 
dram[1]:  0.000000  0.000000  0.000000  0.000000  0.000000  0.000000  0.000000  0.000000  0.000000  0.000000  0.000000  0.000000  0.000000  0.000000  0.000000  0.000000 
dram[2]:  0.000000  0.000000  0.000000  0.000000  0.000000  0.000000  0.000000  0.000000  0.000000  0.000000  0.000000  0.000000  0.000000  0.000000  0.000000  0.000000 
dram[3]:  0.000000  0.000000  0.000000  0.000000  0.000000  0.000000  0.000000  0.000000  0.000000  0.000000  0.000000  0.000000  0.000000  0.000000  0.000000  0.000000 
dram[4]:  0.000000  0.000000  0.000000  0.000000  0.000000  0.000000  0.000000  0.000000  0.000000  0.000000  0.000000  0.000000  0.000000  0.000000  0.000000  0.000000 
dram[5]:  0.000000  0.000000  0.000000  0.000000  0.000000  0.000000  0.000000  0.000000  0.000000  0.000000  0.000000  0.000000  0.000000  0.000000  0.000000  0.000000 
dram[6]: 33.811321 35.137257 36.571430 39.822224 58.000000 47.764706 256.000000 256.000000 256.000000 256.000000 241.333328 241.333328 256.000000 256.000000 256.000000 256.000000 
dram[7]: 41.674419 35.137257 41.674419 39.822224 47.764706 47.764706 256.000000 256.000000 256.000000 256.000000 241.333328 241.333328 256.000000 256.000000 256.000000 256.000000 
dram[8]: 48.432434 35.137257 41.674419 41.674419 45.111111 45.111111 256.000000 256.000000 256.000000 256.000000 241.666672 242.000000 256.000000 256.000000 256.000000 256.000000 
dram[9]: 35.137257 39.822224 36.571430 35.137257 45.111111 58.000000 256.000000 256.000000 256.000000 256.000000 242.000000 242.000000 256.000000 256.000000 256.000000 256.000000 
dram[10]: 36.571430 39.822224 39.822224 39.822224 57.857143 50.500000 256.000000 256.000000 256.000000 256.000000 242.000000 242.000000 256.000000 256.000000 256.000000 256.000000 
dram[11]: 43.707317 38.127659 41.674419 33.811321 47.529411 50.500000 256.000000 256.000000 256.000000 256.000000 242.000000 242.000000 256.000000 256.000000 256.000000 256.000000 
dram[12]:  0.000000  0.000000  0.000000  0.000000  0.000000  0.000000  0.000000  0.000000  0.000000  0.000000  0.000000  0.000000  0.000000  0.000000  0.000000  0.000000 
dram[13]:  0.000000  0.000000  0.000000  0.000000  0.000000  0.000000  0.000000  0.000000  0.000000  0.000000  0.000000  0.000000  0.000000  0.000000  0.000000  0.000000 
dram[14]:  0.000000  0.000000  0.000000  0.000000  0.000000  0.000000  0.000000  0.000000  0.000000  0.000000  0.000000  0.000000  0.000000  0.000000  0.000000  0.000000 
dram[15]:  0.000000  0.000000  0.000000  0.000000  0.000000  0.000000  0.000000  0.000000  0.000000  0.000000  0.000000  0.000000  0.000000  0.000000  0.000000  0.000000 
dram[16]:  0.000000  0.000000  0.000000  0.000000  0.000000  0.000000  0.000000  0.000000  0.000000  0.000000  0.000000  0.000000  0.000000  0.000000  0.000000  0.000000 
dram[17]:  0.000000  0.000000  0.000000  0.000000  0.000000  0.000000  0.000000  0.000000  0.000000  0.000000  0.000000  0.000000  0.000000  0.000000  0.000000  0.000000 
dram[18]:  0.000000  0.000000  0.000000  0.000000  0.000000  0.000000  0.000000  0.000000  0.000000  0.000000  0.000000  0.000000  0.000000  0.000000  0.000000  0.000000 
dram[19]:  0.000000  0.000000  0.000000  0.000000  0.000000  0.000000  0.000000  0.000000  0.000000  0.000000  0.000000  0.000000  0.000000  0.000000  0.000000  0.000000 
dram[20]:  0.000000  0.000000  0.000000  0.000000  0.000000  0.000000  0.000000  0.000000  0.000000  0.000000  0.000000  0.000000  0.000000  0.000000  0.000000  0.000000 
dram[21]:  0.000000  0.000000  0.000000  0.000000  0.000000  0.000000  0.000000  0.000000  0.000000  0.000000  0.000000  0.000000  0.000000  0.000000  0.000000  0.000000 
dram[22]:  0.000000  0.000000  0.000000  0.000000  0.000000  0.000000  0.000000  0.000000  0.000000  0.000000  0.000000  0.000000  0.000000  0.000000  0.000000  0.000000 
dram[23]:  0.000000  0.000000  0.000000  0.000000  0.000000  0.000000  0.000000  0.000000  0.000000  0.000000  0.000000  0.000000  0.000000  0.000000  0.000000  0.000000 
average row locality = 147458/1846 = 79.879738
number of total memory accesses made:
dram[0]:         0         0         0         0         0         0         0         0         0         0         0         0         0         0         0         0 
dram[1]:         0         0         0         0         0         0         0         0         0         0         0         0         0         0         0         0 
dram[2]:         0         0         0         0         0         0         0         0         0         0         0         0         0         0         0         0 
dram[3]:         0         0         0         0         0         0         0         0         0         0         0         0         0         0         0         0 
dram[4]:         0         0         0         0         0         0         0         0         0         0         0         0         0         0         0         0 
dram[5]:         0         0         0         0         0         0         0         0         0         0         0         0         0         0         0         0 
dram[6]:         0         0         0         0         0         0         0         0         0         0         0         0         0         0         0         0 
dram[7]:         0         0         0         0         0         0         0         0         0         0         0         0         0         0         0         0 
dram[8]:         0         0         0         0         0         0         0         0         0         0         0         0         0         0         0         0 
dram[9]:         0         0         0         0         0         0         0         0         0         0         0         0         0         0         0         0 
dram[10]:         0         0         0         0         0         0         0         0         0         0         0         0         0         0         0         0 
dram[11]:         0         0         0         0         0         0         0         0         0         0         0         0         0         0         0         0 
dram[12]:         0         0         0         0         0         0         0         0         0         0         0         0         0         0         0         0 
dram[13]:         0         0         0         0         0         0         0         0         0         0         0         0         0         0         0         0 
dram[14]:         0         0         0         0         0         0         0         0         0         0         0         0         0         0         0         0 
dram[15]:         0         0         0         0         0         0         0         0         0         0         0         0         0         0         0         0 
dram[16]:         0         0         0         0         0         0         0         0         0         0         0         0         0         0         0         0 
dram[17]:         0         0         0         0         0         0         0         0         0         0         0         0         0         0         0         0 
dram[18]:         0         0         0         0         0         0         0         0         0         0         0         0         0         0         0         0 
dram[19]:         0         0         0         0         0         0         0         0         0         0         0         0         0         0         0         0 
dram[20]:         0         0         0         0         0         0         0         0         0         0         0         0         0         0         0         0 
dram[21]:         0         0         0         0         0         0         0         0         0         0         0         0         0         0         0         0 
dram[22]:         0         0         0         0         0         0         0         0         0         0         0         0         0         0         0         0 
dram[23]:         0         0         0         0         0         0         0         0         0         0         0         0         0         0         0         0 
total accesses: 0
min_bank_accesses = 0!
min_chip_accesses = 0!
number of total read accesses:
dram[0]:         0         0         0         0         0         0         0         0         0         0         0         0         0         0         0         0 
dram[1]:         0         0         0         0         0         0         0         0         0         0         0         0         0         0         0         0 
dram[2]:         0         0         0         0         0         0         0         0         0         0         0         0         0         0         0         0 
dram[3]:         0         0         0         0         0         0         0         0         0         0         0         0         0         0         0         0 
dram[4]:         0         0         0         0         0         0         0         0         0         0         0         0         0         0         0         0 
dram[5]:         0         0         0         0         0         0         0         0         0         0         0         0         0         0         0         0 
dram[6]:      1792      1792      1792      1792      1624      1624      1280      1280      1280      1280      1448      1448      1536      1536      1536      1536 
dram[7]:      1792      1792      1792      1792      1624      1624      1280      1280      1280      1280      1448      1448      1536      1536      1536      1536 
dram[8]:      1792      1792      1792      1792      1624      1624      1280      1280      1280      1280      1450      1452      1536      1536      1536      1536 
dram[9]:      1792      1792      1792      1792      1624      1624      1280      1280      1280      1280      1452      1452      1536      1536      1536      1536 
dram[10]:      1792      1792      1792      1792      1620      1616      1280      1280      1280      1280      1452      1452      1536      1536      1536      1536 
dram[11]:      1792      1792      1792      1792      1616      1616      1280      1280      1280      1280      1452      1452      1536      1536      1536      1536 
dram[12]:         0         0         0         0         0         0         0         0         0         0         0         0         0         0         0         0 
dram[13]:         0         0         0         0         0         0         0         0         0         0         0         0         0         0         0         0 
dram[14]:         0         0         0         0         0         0         0         0         0         0         0         0         0         0         0         0 
dram[15]:         0         0         0         0         0         0         0         0         0         0         0         0         0         0         0         0 
dram[16]:         0         0         0         0         0         0         0         0         0         0         0         0         0         0         0         0 
dram[17]:         0         0         0         0         0         0         0         0         0         0         0         0         0         0         0         0 
dram[18]:         0         0         0         0         0         0         0         0         0         0         0         0         0         0         0         0 
dram[19]:         0         0         0         0         0         0         0         0         0         0         0         0         0         0         0         0 
dram[20]:         0         0         0         0         0         0         0         0         0         0         0         0         0         0         0         0 
dram[21]:         0         0         0         0         0         0         0         0         0         0         0         0         0         0         0         0 
dram[22]:         0         0         0         0         0         0         0         0         0         0         0         0         0         0         0         0 
dram[23]:         0         0         0         0         0         0         0         0         0         0         0         0         0         0         0         0 
total dram reads = 147458
min_bank_accesses = 0!
min_chip_accesses = 0!
number of total write accesses:
dram[0]:         0         0         0         0         0         0         0         0         0         0         0         0         0         0         0         0 
dram[1]:         0         0         0         0         0         0         0         0         0         0         0         0         0         0         0         0 
dram[2]:         0         0         0         0         0         0         0         0         0         0         0         0         0         0         0         0 
dram[3]:         0         0         0         0         0         0         0         0         0         0         0         0         0         0         0         0 
dram[4]:         0         0         0         0         0         0         0         0         0         0         0         0         0         0         0         0 
dram[5]:         0         0         0         0         0         0         0         0         0         0         0         0         0         0         0         0 
dram[6]:         0         0         0         0         0         0         0         0         0         0         0         0         0         0         0         0 
dram[7]:         0         0         0         0         0         0         0         0         0         0         0         0         0         0         0         0 
dram[8]:         0         0         0         0         0         0         0         0         0         0         0         0         0         0         0         0 
dram[9]:         0         0         0         0         0         0         0         0         0         0         0         0         0         0         0         0 
dram[10]:         0         0         0         0         0         0         0         0         0         0         0         0         0         0         0         0 
dram[11]:         0         0         0         0         0         0         0         0         0         0         0         0         0         0         0         0 
dram[12]:         0         0         0         0         0         0         0         0         0         0         0         0         0         0         0         0 
dram[13]:         0         0         0         0         0         0         0         0         0         0         0         0         0         0         0         0 
dram[14]:         0         0         0         0         0         0         0         0         0         0         0         0         0         0         0         0 
dram[15]:         0         0         0         0         0         0         0         0         0         0         0         0         0         0         0         0 
dram[16]:         0         0         0         0         0         0         0         0         0         0         0         0         0         0         0         0 
dram[17]:         0         0         0         0         0         0         0         0         0         0         0         0         0         0         0         0 
dram[18]:         0         0         0         0         0         0         0         0         0         0         0         0         0         0         0         0 
dram[19]:         0         0         0         0         0         0         0         0         0         0         0         0         0         0         0         0 
dram[20]:         0         0         0         0         0         0         0         0         0         0         0         0         0         0         0         0 
dram[21]:         0         0         0         0         0         0         0         0         0         0         0         0         0         0         0         0 
dram[22]:         0         0         0         0         0         0         0         0         0         0         0         0         0         0         0         0 
dram[23]:         0         0         0         0         0         0         0         0         0         0         0         0         0         0         0         0 
total dram writes = 0
min_bank_accesses = 0!
min_chip_accesses = 0!
average mf latency per bank:
dram[0]:     none      none      none      none      none      none      none      none      none      none      none      none      none      none      none      none  
dram[1]:     none      none      none      none      none      none      none      none      none      none      none      none      none      none      none      none  
dram[2]:     none      none      none      none      none      none      none      none      none      none      none      none      none      none      none      none  
dram[3]:     none      none      none      none      none      none      none      none      none      none      none      none      none      none      none      none  
dram[4]:     none      none      none      none      none      none      none      none      none      none      none      none      none      none      none      none  
dram[5]:     none      none      none      none      none      none      none      none      none      none      none      none      none      none      none      none  
dram[6]:        745       750       743       750       792       809       949       963       951       962       835       845       768       781       758       767
dram[7]:        745       751       749       750       801       797       961       962       960       962       843       845       771       776       764       765
dram[8]:        748       751       752       750       802       804       962       958       960       964       844       844       773       779       765       765
dram[9]:        748       750       752       752       806       801       962       961       965       961       845       845       774       778       767       767
dram[10]:        749       750       749       748       803       805       960       961       962       963       842       843       773       775       769       768
dram[11]:        747       751       747       749       802       805       963       964       962       961       844       846       772       778       767       765
dram[12]:     none      none      none      none      none      none      none      none      none      none      none      none      none      none      none      none  
dram[13]:     none      none      none      none      none      none      none      none      none      none      none      none      none      none      none      none  
dram[14]:     none      none      none      none      none      none      none      none      none      none      none      none      none      none      none      none  
dram[15]:     none      none      none      none      none      none      none      none      none      none      none      none      none      none      none      none  
dram[16]:     none      none      none      none      none      none      none      none      none      none      none      none      none      none      none      none  
dram[17]:     none      none      none      none      none      none      none      none      none      none      none      none      none      none      none      none  
dram[18]:     none      none      none      none      none      none      none      none      none      none      none      none      none      none      none      none  
dram[19]:     none      none      none      none      none      none      none      none      none      none      none      none      none      none      none      none  
dram[20]:     none      none      none      none      none      none      none      none      none      none      none      none      none      none      none      none  
dram[21]:     none      none      none      none      none      none      none      none      none      none      none      none      none      none      none      none  
dram[22]:     none      none      none      none      none      none      none      none      none      none      none      none      none      none      none      none  
dram[23]:     none      none      none      none      none      none      none      none      none      none      none      none      none      none      none      none  
maximum mf latency per bank:
dram[0]:          0         0         0         0         0         0         0         0         0         0         0         0         0         0         0         0
dram[1]:          0         0         0         0         0         0         0         0         0         0         0         0         0         0         0         0
dram[2]:          0         0         0         0         0         0         0         0         0         0         0         0         0         0         0         0
dram[3]:          0         0         0         0         0         0         0         0         0         0         0         0         0         0         0         0
dram[4]:          0         0         0         0         0         0         0         0         0         0         0         0         0         0         0         0
dram[5]:          0         0         0         0         0         0         0         0         0         0         0         0         0         0         0         0
dram[6]:        625       641       611       616       592       675       508       528       518       533       828       832       810       878       558       580
dram[7]:        611       654       705       648       603       663       522       535       538       535       826       748       779       861       555       590
dram[8]:        729       667       657       661       637       679       528       529       532       533       778       769       840       909       536       536
dram[9]:        625       704       662       646       618       658       520       518       543       532       841       798       832       879       552       549
dram[10]:        612       666       608       659       634       690       519       519       535       537       801       793       774       827       558       568
dram[11]:        678       654       614       617       620       627       541       560       517       528       808       825       751       833       561       557
dram[12]:          0         0         0         0         0         0         0         0         0         0         0         0         0         0         0         0
dram[13]:          0         0         0         0         0         0         0         0         0         0         0         0         0         0         0         0
dram[14]:          0         0         0         0         0         0         0         0         0         0         0         0         0         0         0         0
dram[15]:          0         0         0         0         0         0         0         0         0         0         0         0         0         0         0         0
dram[16]:          0         0         0         0         0         0         0         0         0         0         0         0         0         0         0         0
dram[17]:          0         0         0         0         0         0         0         0         0         0         0         0         0         0         0         0
dram[18]:          0         0         0         0         0         0         0         0         0         0         0         0         0         0         0         0
dram[19]:          0         0         0         0         0         0         0         0         0         0         0         0         0         0         0         0
dram[20]:          0         0         0         0         0         0         0         0         0         0         0         0         0         0         0         0
dram[21]:          0         0         0         0         0         0         0         0         0         0         0         0         0         0         0         0
dram[22]:          0         0         0         0         0         0         0         0         0         0         0         0         0         0         0         0
dram[23]:          0         0         0         0         0         0         0         0         0         0         0         0         0         0         0         0
Memory Partition 0 (kid=1): 
Cache L2_bank_000 (kid=1):
MSHR contents (kid=1)

Cache L2_bank_001 (kid=1):
MSHR contents (kid=1)

In Dram Latency Queue (total = 0, matching kid = 0): 
DRAM[0]: 16 bks, busW=16 BL=2 CL=19, tRRD=5 tCCD=1, tRCD=17 tRAS=45 tRP=19 tRC=64
n_cmd=103410 n_nop=103410 n_act=0 n_pre=0 n_ref_event=0 n_req=0 n_rd=0 n_rd_L2_A=0 n_write=0 n_wr_bk=0 bw_util=0
n_activity=0 dram_eff=0
bk0: 0a 103410i bk1: 0a 103410i bk2: 0a 103410i bk3: 0a 103410i bk4: 0a 103410i bk5: 0a 103410i bk6: 0a 103410i bk7: 0a 103410i bk8: 0a 103410i bk9: 0a 103410i bk10: 0a 103410i bk11: 0a 103410i bk12: 0a 103410i bk13: 0a 103410i bk14: 0a 103410i bk15: 0a 103410i 

------------------------------------------------------------------------

Row_Buffer_Locality = 0.000000
Row_Buffer_Locality_read = 0.000000
Row_Buffer_Locality_write = 0.000000
Bank_Level_Parallism = 0.000000
Bank_Level_Parallism_Col = 0.000000
Bank_Level_Parallism_Ready = 0.000000
write_to_read_ratio_blp_rw_average = 0.000000
GrpLevelPara = 0.000000 

BW Util details:
bwutil = 0.000000 
total_CMD = 103410 
util_bw = 0 
Wasted_Col = 0 
Wasted_Row = 0 
Idle = 103410 

BW Util Bottlenecks: 
RCDc_limit = 0 
RCDWRc_limit = 0 
WTRc_limit = 0 
RTWc_limit = 0 
CCDLc_limit = 0 
rwq = 0 
CCDLc_limit_alone = 0 
WTRc_limit_alone = 0 
RTWc_limit_alone = 0 

Commands details: 
total_CMD = 103410 
n_nop = 103410 
Read = 0 
Write = 0 
L2_Alloc = 0 
L2_WB = 0 
n_act = 0 
n_pre = 0 
n_ref = 0 
n_req = 0 
total_req = 0 

Dual Bus Interface Util: 
issued_total_row = 0 
issued_total_col = 0 
Row_Bus_Util =  0.000000 
CoL_Bus_Util = 0.000000 
Either_Row_CoL_Bus_Util = 0.000000 
Issued_on_Two_Bus_Simul_Util = 0.000000 
issued_two_Eff = 0.000000 
queue_avg = 0.000000 


dram_util_bins: 0 0 0 0 0 0 0 0 0 0
dram_eff_bins: 0 0 0 0 0 0 0 0 0 0
mrqq: max=0 avg=0
Memory Partition 1 (kid=1): 
Cache L2_bank_002 (kid=1):
MSHR contents (kid=1)

Cache L2_bank_003 (kid=1):
MSHR contents (kid=1)

In Dram Latency Queue (total = 0, matching kid = 0): 
DRAM[1]: 16 bks, busW=16 BL=2 CL=19, tRRD=5 tCCD=1, tRCD=17 tRAS=45 tRP=19 tRC=64
n_cmd=103410 n_nop=103410 n_act=0 n_pre=0 n_ref_event=0 n_req=0 n_rd=0 n_rd_L2_A=0 n_write=0 n_wr_bk=0 bw_util=0
n_activity=0 dram_eff=0
bk0: 0a 103410i bk1: 0a 103410i bk2: 0a 103410i bk3: 0a 103410i bk4: 0a 103410i bk5: 0a 103410i bk6: 0a 103410i bk7: 0a 103410i bk8: 0a 103410i bk9: 0a 103410i bk10: 0a 103410i bk11: 0a 103410i bk12: 0a 103410i bk13: 0a 103410i bk14: 0a 103410i bk15: 0a 103410i 

------------------------------------------------------------------------

Row_Buffer_Locality = 0.000000
Row_Buffer_Locality_read = 0.000000
Row_Buffer_Locality_write = 0.000000
Bank_Level_Parallism = 0.000000
Bank_Level_Parallism_Col = 0.000000
Bank_Level_Parallism_Ready = 0.000000
write_to_read_ratio_blp_rw_average = 0.000000
GrpLevelPara = 0.000000 

BW Util details:
bwutil = 0.000000 
total_CMD = 103410 
util_bw = 0 
Wasted_Col = 0 
Wasted_Row = 0 
Idle = 103410 

BW Util Bottlenecks: 
RCDc_limit = 0 
RCDWRc_limit = 0 
WTRc_limit = 0 
RTWc_limit = 0 
CCDLc_limit = 0 
rwq = 0 
CCDLc_limit_alone = 0 
WTRc_limit_alone = 0 
RTWc_limit_alone = 0 

Commands details: 
total_CMD = 103410 
n_nop = 103410 
Read = 0 
Write = 0 
L2_Alloc = 0 
L2_WB = 0 
n_act = 0 
n_pre = 0 
n_ref = 0 
n_req = 0 
total_req = 0 

Dual Bus Interface Util: 
issued_total_row = 0 
issued_total_col = 0 
Row_Bus_Util =  0.000000 
CoL_Bus_Util = 0.000000 
Either_Row_CoL_Bus_Util = 0.000000 
Issued_on_Two_Bus_Simul_Util = 0.000000 
issued_two_Eff = 0.000000 
queue_avg = 0.000000 


dram_util_bins: 0 0 0 0 0 0 0 0 0 0
dram_eff_bins: 0 0 0 0 0 0 0 0 0 0
mrqq: max=0 avg=0
Memory Partition 2 (kid=1): 
Cache L2_bank_004 (kid=1):
MSHR contents (kid=1)

Cache L2_bank_005 (kid=1):
MSHR contents (kid=1)

In Dram Latency Queue (total = 0, matching kid = 0): 
DRAM[2]: 16 bks, busW=16 BL=2 CL=19, tRRD=5 tCCD=1, tRCD=17 tRAS=45 tRP=19 tRC=64
n_cmd=103410 n_nop=103410 n_act=0 n_pre=0 n_ref_event=0 n_req=0 n_rd=0 n_rd_L2_A=0 n_write=0 n_wr_bk=0 bw_util=0
n_activity=0 dram_eff=0
bk0: 0a 103410i bk1: 0a 103410i bk2: 0a 103410i bk3: 0a 103410i bk4: 0a 103410i bk5: 0a 103410i bk6: 0a 103410i bk7: 0a 103410i bk8: 0a 103410i bk9: 0a 103410i bk10: 0a 103410i bk11: 0a 103410i bk12: 0a 103410i bk13: 0a 103410i bk14: 0a 103410i bk15: 0a 103410i 

------------------------------------------------------------------------

Row_Buffer_Locality = 0.000000
Row_Buffer_Locality_read = 0.000000
Row_Buffer_Locality_write = 0.000000
Bank_Level_Parallism = 0.000000
Bank_Level_Parallism_Col = 0.000000
Bank_Level_Parallism_Ready = 0.000000
write_to_read_ratio_blp_rw_average = 0.000000
GrpLevelPara = 0.000000 

BW Util details:
bwutil = 0.000000 
total_CMD = 103410 
util_bw = 0 
Wasted_Col = 0 
Wasted_Row = 0 
Idle = 103410 

BW Util Bottlenecks: 
RCDc_limit = 0 
RCDWRc_limit = 0 
WTRc_limit = 0 
RTWc_limit = 0 
CCDLc_limit = 0 
rwq = 0 
CCDLc_limit_alone = 0 
WTRc_limit_alone = 0 
RTWc_limit_alone = 0 

Commands details: 
total_CMD = 103410 
n_nop = 103410 
Read = 0 
Write = 0 
L2_Alloc = 0 
L2_WB = 0 
n_act = 0 
n_pre = 0 
n_ref = 0 
n_req = 0 
total_req = 0 

Dual Bus Interface Util: 
issued_total_row = 0 
issued_total_col = 0 
Row_Bus_Util =  0.000000 
CoL_Bus_Util = 0.000000 
Either_Row_CoL_Bus_Util = 0.000000 
Issued_on_Two_Bus_Simul_Util = 0.000000 
issued_two_Eff = 0.000000 
queue_avg = 0.000000 


dram_util_bins: 0 0 0 0 0 0 0 0 0 0
dram_eff_bins: 0 0 0 0 0 0 0 0 0 0
mrqq: max=0 avg=0
Memory Partition 3 (kid=1): 
Cache L2_bank_006 (kid=1):
MSHR contents (kid=1)

Cache L2_bank_007 (kid=1):
MSHR contents (kid=1)

In Dram Latency Queue (total = 0, matching kid = 0): 
DRAM[3]: 16 bks, busW=16 BL=2 CL=19, tRRD=5 tCCD=1, tRCD=17 tRAS=45 tRP=19 tRC=64
n_cmd=103410 n_nop=103410 n_act=0 n_pre=0 n_ref_event=0 n_req=0 n_rd=0 n_rd_L2_A=0 n_write=0 n_wr_bk=0 bw_util=0
n_activity=0 dram_eff=0
bk0: 0a 103410i bk1: 0a 103410i bk2: 0a 103410i bk3: 0a 103410i bk4: 0a 103410i bk5: 0a 103410i bk6: 0a 103410i bk7: 0a 103410i bk8: 0a 103410i bk9: 0a 103410i bk10: 0a 103410i bk11: 0a 103410i bk12: 0a 103410i bk13: 0a 103410i bk14: 0a 103410i bk15: 0a 103410i 

------------------------------------------------------------------------

Row_Buffer_Locality = 0.000000
Row_Buffer_Locality_read = 0.000000
Row_Buffer_Locality_write = 0.000000
Bank_Level_Parallism = 0.000000
Bank_Level_Parallism_Col = 0.000000
Bank_Level_Parallism_Ready = 0.000000
write_to_read_ratio_blp_rw_average = 0.000000
GrpLevelPara = 0.000000 

BW Util details:
bwutil = 0.000000 
total_CMD = 103410 
util_bw = 0 
Wasted_Col = 0 
Wasted_Row = 0 
Idle = 103410 

BW Util Bottlenecks: 
RCDc_limit = 0 
RCDWRc_limit = 0 
WTRc_limit = 0 
RTWc_limit = 0 
CCDLc_limit = 0 
rwq = 0 
CCDLc_limit_alone = 0 
WTRc_limit_alone = 0 
RTWc_limit_alone = 0 

Commands details: 
total_CMD = 103410 
n_nop = 103410 
Read = 0 
Write = 0 
L2_Alloc = 0 
L2_WB = 0 
n_act = 0 
n_pre = 0 
n_ref = 0 
n_req = 0 
total_req = 0 

Dual Bus Interface Util: 
issued_total_row = 0 
issued_total_col = 0 
Row_Bus_Util =  0.000000 
CoL_Bus_Util = 0.000000 
Either_Row_CoL_Bus_Util = 0.000000 
Issued_on_Two_Bus_Simul_Util = 0.000000 
issued_two_Eff = 0.000000 
queue_avg = 0.000000 


dram_util_bins: 0 0 0 0 0 0 0 0 0 0
dram_eff_bins: 0 0 0 0 0 0 0 0 0 0
mrqq: max=0 avg=0
Memory Partition 4 (kid=1): 
Cache L2_bank_008 (kid=1):
MSHR contents (kid=1)

Cache L2_bank_009 (kid=1):
MSHR contents (kid=1)

In Dram Latency Queue (total = 0, matching kid = 0): 
DRAM[4]: 16 bks, busW=16 BL=2 CL=19, tRRD=5 tCCD=1, tRCD=17 tRAS=45 tRP=19 tRC=64
n_cmd=103410 n_nop=103410 n_act=0 n_pre=0 n_ref_event=0 n_req=0 n_rd=0 n_rd_L2_A=0 n_write=0 n_wr_bk=0 bw_util=0
n_activity=0 dram_eff=0
bk0: 0a 103410i bk1: 0a 103410i bk2: 0a 103410i bk3: 0a 103410i bk4: 0a 103410i bk5: 0a 103410i bk6: 0a 103410i bk7: 0a 103410i bk8: 0a 103410i bk9: 0a 103410i bk10: 0a 103410i bk11: 0a 103410i bk12: 0a 103410i bk13: 0a 103410i bk14: 0a 103410i bk15: 0a 103410i 

------------------------------------------------------------------------

Row_Buffer_Locality = 0.000000
Row_Buffer_Locality_read = 0.000000
Row_Buffer_Locality_write = 0.000000
Bank_Level_Parallism = 0.000000
Bank_Level_Parallism_Col = 0.000000
Bank_Level_Parallism_Ready = 0.000000
write_to_read_ratio_blp_rw_average = 0.000000
GrpLevelPara = 0.000000 

BW Util details:
bwutil = 0.000000 
total_CMD = 103410 
util_bw = 0 
Wasted_Col = 0 
Wasted_Row = 0 
Idle = 103410 

BW Util Bottlenecks: 
RCDc_limit = 0 
RCDWRc_limit = 0 
WTRc_limit = 0 
RTWc_limit = 0 
CCDLc_limit = 0 
rwq = 0 
CCDLc_limit_alone = 0 
WTRc_limit_alone = 0 
RTWc_limit_alone = 0 

Commands details: 
total_CMD = 103410 
n_nop = 103410 
Read = 0 
Write = 0 
L2_Alloc = 0 
L2_WB = 0 
n_act = 0 
n_pre = 0 
n_ref = 0 
n_req = 0 
total_req = 0 

Dual Bus Interface Util: 
issued_total_row = 0 
issued_total_col = 0 
Row_Bus_Util =  0.000000 
CoL_Bus_Util = 0.000000 
Either_Row_CoL_Bus_Util = 0.000000 
Issued_on_Two_Bus_Simul_Util = 0.000000 
issued_two_Eff = 0.000000 
queue_avg = 0.000000 


dram_util_bins: 0 0 0 0 0 0 0 0 0 0
dram_eff_bins: 0 0 0 0 0 0 0 0 0 0
mrqq: max=0 avg=0
Memory Partition 5 (kid=1): 
Cache L2_bank_010 (kid=1):
MSHR contents (kid=1)

Cache L2_bank_011 (kid=1):
MSHR contents (kid=1)

In Dram Latency Queue (total = 0, matching kid = 0): 
DRAM[5]: 16 bks, busW=16 BL=2 CL=19, tRRD=5 tCCD=1, tRCD=17 tRAS=45 tRP=19 tRC=64
n_cmd=103410 n_nop=103410 n_act=0 n_pre=0 n_ref_event=0 n_req=0 n_rd=0 n_rd_L2_A=0 n_write=0 n_wr_bk=0 bw_util=0
n_activity=0 dram_eff=0
bk0: 0a 103410i bk1: 0a 103410i bk2: 0a 103410i bk3: 0a 103410i bk4: 0a 103410i bk5: 0a 103410i bk6: 0a 103410i bk7: 0a 103410i bk8: 0a 103410i bk9: 0a 103410i bk10: 0a 103410i bk11: 0a 103410i bk12: 0a 103410i bk13: 0a 103410i bk14: 0a 103410i bk15: 0a 103410i 

------------------------------------------------------------------------

Row_Buffer_Locality = 0.000000
Row_Buffer_Locality_read = 0.000000
Row_Buffer_Locality_write = 0.000000
Bank_Level_Parallism = 0.000000
Bank_Level_Parallism_Col = 0.000000
Bank_Level_Parallism_Ready = 0.000000
write_to_read_ratio_blp_rw_average = 0.000000
GrpLevelPara = 0.000000 

BW Util details:
bwutil = 0.000000 
total_CMD = 103410 
util_bw = 0 
Wasted_Col = 0 
Wasted_Row = 0 
Idle = 103410 

BW Util Bottlenecks: 
RCDc_limit = 0 
RCDWRc_limit = 0 
WTRc_limit = 0 
RTWc_limit = 0 
CCDLc_limit = 0 
rwq = 0 
CCDLc_limit_alone = 0 
WTRc_limit_alone = 0 
RTWc_limit_alone = 0 

Commands details: 
total_CMD = 103410 
n_nop = 103410 
Read = 0 
Write = 0 
L2_Alloc = 0 
L2_WB = 0 
n_act = 0 
n_pre = 0 
n_ref = 0 
n_req = 0 
total_req = 0 

Dual Bus Interface Util: 
issued_total_row = 0 
issued_total_col = 0 
Row_Bus_Util =  0.000000 
CoL_Bus_Util = 0.000000 
Either_Row_CoL_Bus_Util = 0.000000 
Issued_on_Two_Bus_Simul_Util = 0.000000 
issued_two_Eff = 0.000000 
queue_avg = 0.000000 


dram_util_bins: 0 0 0 0 0 0 0 0 0 0
dram_eff_bins: 0 0 0 0 0 0 0 0 0 0
mrqq: max=0 avg=0
Memory Partition 6 (kid=1): 
Cache L2_bank_012 (kid=1):
MSHR contents (kid=1)

Cache L2_bank_013 (kid=1):
MSHR contents (kid=1)

In Dram Latency Queue (total = 0, matching kid = 0): 
DRAM[6]: 16 bks, busW=16 BL=2 CL=19, tRRD=5 tCCD=1, tRCD=17 tRAS=45 tRP=19 tRC=64
n_cmd=103410 n_nop=78333 n_act=316 n_pre=300 n_ref_event=0 n_req=24576 n_rd=24576 n_rd_L2_A=0 n_write=0 n_wr_bk=0 bw_util=0.2377
n_activity=77027 dram_eff=0.3191
bk0: 1792a 98495i bk1: 1792a 98563i bk2: 1792a 98789i bk3: 1792a 99056i bk4: 1624a 100037i bk5: 1624a 99550i bk6: 1280a 101543i bk7: 1280a 101477i bk8: 1280a 101516i bk9: 1280a 101401i bk10: 1448a 101155i bk11: 1448a 101119i bk12: 1536a 101160i bk13: 1536a 100954i bk14: 1536a 101183i bk15: 1536a 101151i 

------------------------------------------------------------------------

Row_Buffer_Locality = 0.987142
Row_Buffer_Locality_read = 0.987142
Row_Buffer_Locality_write = 0.000000
Bank_Level_Parallism = 1.478051
Bank_Level_Parallism_Col = 1.392460
Bank_Level_Parallism_Ready = 1.062948
write_to_read_ratio_blp_rw_average = 0.000000
GrpLevelPara = 1.381553 

BW Util details:
bwutil = 0.237656 
total_CMD = 103410 
util_bw = 24576 
Wasted_Col = 20954 
Wasted_Row = 3174 
Idle = 54706 

BW Util Bottlenecks: 
RCDc_limit = 4349 
RCDWRc_limit = 0 
WTRc_limit = 0 
RTWc_limit = 0 
CCDLc_limit = 21585 
rwq = 0 
CCDLc_limit_alone = 21585 
WTRc_limit_alone = 0 
RTWc_limit_alone = 0 

Commands details: 
total_CMD = 103410 
n_nop = 78333 
Read = 24576 
Write = 0 
L2_Alloc = 0 
L2_WB = 0 
n_act = 316 
n_pre = 300 
n_ref = 0 
n_req = 24576 
total_req = 24576 

Dual Bus Interface Util: 
issued_total_row = 616 
issued_total_col = 24576 
Row_Bus_Util =  0.005957 
CoL_Bus_Util = 0.237656 
Either_Row_CoL_Bus_Util = 0.242501 
Issued_on_Two_Bus_Simul_Util = 0.001112 
issued_two_Eff = 0.004586 
queue_avg = 1.747684 


dram_util_bins: 0 0 0 0 0 0 0 0 0 0
dram_eff_bins: 0 0 0 0 0 0 0 0 0 0
mrqq: max=52 avg=1.74768
Memory Partition 7 (kid=1): 
Cache L2_bank_014 (kid=1):
MSHR contents (kid=1)

Cache L2_bank_015 (kid=1):
MSHR contents (kid=1)

In Dram Latency Queue (total = 0, matching kid = 0): 
DRAM[7]: 16 bks, busW=16 BL=2 CL=19, tRRD=5 tCCD=1, tRCD=17 tRAS=45 tRP=19 tRC=64
n_cmd=103410 n_nop=78338 n_act=306 n_pre=290 n_ref_event=0 n_req=24576 n_rd=24576 n_rd_L2_A=0 n_write=0 n_wr_bk=0 bw_util=0.2377
n_activity=76513 dram_eff=0.3212
bk0: 1792a 99035i bk1: 1792a 98510i bk2: 1792a 99042i bk3: 1792a 98856i bk4: 1624a 99692i bk5: 1624a 99706i bk6: 1280a 101519i bk7: 1280a 101492i bk8: 1280a 101495i bk9: 1280a 101475i bk10: 1448a 101150i bk11: 1448a 101122i bk12: 1536a 101117i bk13: 1536a 101012i bk14: 1536a 101192i bk15: 1536a 101208i 

------------------------------------------------------------------------

Row_Buffer_Locality = 0.987549
Row_Buffer_Locality_read = 0.987549
Row_Buffer_Locality_write = 0.000000
Bank_Level_Parallism = 1.478641
Bank_Level_Parallism_Col = 1.403703
Bank_Level_Parallism_Ready = 1.062419
write_to_read_ratio_blp_rw_average = 0.000000
GrpLevelPara = 1.391345 

BW Util details:
bwutil = 0.237656 
total_CMD = 103410 
util_bw = 24576 
Wasted_Col = 20561 
Wasted_Row = 3227 
Idle = 55046 

BW Util Bottlenecks: 
RCDc_limit = 4301 
RCDWRc_limit = 0 
WTRc_limit = 0 
RTWc_limit = 0 
CCDLc_limit = 21210 
rwq = 0 
CCDLc_limit_alone = 21210 
WTRc_limit_alone = 0 
RTWc_limit_alone = 0 

Commands details: 
total_CMD = 103410 
n_nop = 78338 
Read = 24576 
Write = 0 
L2_Alloc = 0 
L2_WB = 0 
n_act = 306 
n_pre = 290 
n_ref = 0 
n_req = 24576 
total_req = 24576 

Dual Bus Interface Util: 
issued_total_row = 596 
issued_total_col = 24576 
Row_Bus_Util =  0.005763 
CoL_Bus_Util = 0.237656 
Either_Row_CoL_Bus_Util = 0.242452 
Issued_on_Two_Bus_Simul_Util = 0.000967 
issued_two_Eff = 0.003989 
queue_avg = 1.618238 


dram_util_bins: 0 0 0 0 0 0 0 0 0 0
dram_eff_bins: 0 0 0 0 0 0 0 0 0 0
mrqq: max=50 avg=1.61824
Memory Partition 8 (kid=1): 
Cache L2_bank_016 (kid=1):
MSHR contents (kid=1)

Cache L2_bank_017 (kid=1):
MSHR contents (kid=1)

In Dram Latency Queue (total = 0, matching kid = 0): 
DRAM[8]: 16 bks, busW=16 BL=2 CL=19, tRRD=5 tCCD=1, tRCD=17 tRAS=45 tRP=19 tRC=64
n_cmd=103410 n_nop=78345 n_act=302 n_pre=286 n_ref_event=0 n_req=24582 n_rd=24582 n_rd_L2_A=0 n_write=0 n_wr_bk=0 bw_util=0.2377
n_activity=76917 dram_eff=0.3196
bk0: 1792a 99330i bk1: 1792a 98527i bk2: 1792a 98972i bk3: 1792a 98984i bk4: 1624a 99530i bk5: 1624a 99590i bk6: 1280a 101551i bk7: 1280a 101499i bk8: 1280a 101491i bk9: 1280a 101502i bk10: 1450a 101185i bk11: 1452a 101170i bk12: 1536a 101118i bk13: 1536a 100981i bk14: 1536a 101243i bk15: 1536a 101157i 

------------------------------------------------------------------------

Row_Buffer_Locality = 0.987715
Row_Buffer_Locality_read = 0.987715
Row_Buffer_Locality_write = 0.000000
Bank_Level_Parallism = 1.482640
Bank_Level_Parallism_Col = 1.390057
Bank_Level_Parallism_Ready = 1.064885
write_to_read_ratio_blp_rw_average = 0.000000
GrpLevelPara = 1.378914 

BW Util details:
bwutil = 0.237714 
total_CMD = 103410 
util_bw = 24582 
Wasted_Col = 20865 
Wasted_Row = 2651 
Idle = 55312 

BW Util Bottlenecks: 
RCDc_limit = 4110 
RCDWRc_limit = 0 
WTRc_limit = 0 
RTWc_limit = 0 
CCDLc_limit = 21560 
rwq = 0 
CCDLc_limit_alone = 21560 
WTRc_limit_alone = 0 
RTWc_limit_alone = 0 

Commands details: 
total_CMD = 103410 
n_nop = 78345 
Read = 24582 
Write = 0 
L2_Alloc = 0 
L2_WB = 0 
n_act = 302 
n_pre = 286 
n_ref = 0 
n_req = 24582 
total_req = 24582 

Dual Bus Interface Util: 
issued_total_row = 588 
issued_total_col = 24582 
Row_Bus_Util =  0.005686 
CoL_Bus_Util = 0.237714 
Either_Row_CoL_Bus_Util = 0.242385 
Issued_on_Two_Bus_Simul_Util = 0.001015 
issued_two_Eff = 0.004189 
queue_avg = 1.778426 


dram_util_bins: 0 0 0 0 0 0 0 0 0 0
dram_eff_bins: 0 0 0 0 0 0 0 0 0 0
mrqq: max=52 avg=1.77843
Memory Partition 9 (kid=1): 
Cache L2_bank_018 (kid=1):
MSHR contents (kid=1)

Cache L2_bank_019 (kid=1):
MSHR contents (kid=1)

In Dram Latency Queue (total = 0, matching kid = 0): 
DRAM[9]: 16 bks, busW=16 BL=2 CL=19, tRRD=5 tCCD=1, tRCD=17 tRAS=45 tRP=19 tRC=64
n_cmd=103410 n_nop=78326 n_act=316 n_pre=300 n_ref_event=0 n_req=24584 n_rd=24584 n_rd_L2_A=0 n_write=0 n_wr_bk=0 bw_util=0.2377
n_activity=77229 dram_eff=0.3183
bk0: 1792a 98629i bk1: 1792a 98910i bk2: 1792a 98682i bk3: 1792a 98571i bk4: 1624a 99613i bk5: 1624a 99985i bk6: 1280a 101601i bk7: 1280a 101468i bk8: 1280a 101527i bk9: 1280a 101490i bk10: 1452a 101244i bk11: 1452a 101213i bk12: 1536a 101119i bk13: 1536a 101013i bk14: 1536a 101260i bk15: 1536a 101160i 

------------------------------------------------------------------------

Row_Buffer_Locality = 0.987146
Row_Buffer_Locality_read = 0.987146
Row_Buffer_Locality_write = 0.000000
Bank_Level_Parallism = 1.474040
Bank_Level_Parallism_Col = 1.386620
Bank_Level_Parallism_Ready = 1.063415
write_to_read_ratio_blp_rw_average = 0.000000
GrpLevelPara = 1.375572 

BW Util details:
bwutil = 0.237733 
total_CMD = 103410 
util_bw = 24584 
Wasted_Col = 21003 
Wasted_Row = 3027 
Idle = 54796 

BW Util Bottlenecks: 
RCDc_limit = 4411 
RCDWRc_limit = 0 
WTRc_limit = 0 
RTWc_limit = 0 
CCDLc_limit = 21338 
rwq = 0 
CCDLc_limit_alone = 21338 
WTRc_limit_alone = 0 
RTWc_limit_alone = 0 

Commands details: 
total_CMD = 103410 
n_nop = 78326 
Read = 24584 
Write = 0 
L2_Alloc = 0 
L2_WB = 0 
n_act = 316 
n_pre = 300 
n_ref = 0 
n_req = 24584 
total_req = 24584 

Dual Bus Interface Util: 
issued_total_row = 616 
issued_total_col = 24584 
Row_Bus_Util =  0.005957 
CoL_Bus_Util = 0.237733 
Either_Row_CoL_Bus_Util = 0.242568 
Issued_on_Two_Bus_Simul_Util = 0.001122 
issued_two_Eff = 0.004624 
queue_avg = 1.746340 


dram_util_bins: 0 0 0 0 0 0 0 0 0 0
dram_eff_bins: 0 0 0 0 0 0 0 0 0 0
mrqq: max=51 avg=1.74634
Memory Partition 10 (kid=1): 
Cache L2_bank_020 (kid=1):
MSHR contents (kid=1)

Cache L2_bank_021 (kid=1):
MSHR contents (kid=1)

In Dram Latency Queue (total = 0, matching kid = 0): 
DRAM[10]: 16 bks, busW=16 BL=2 CL=19, tRRD=5 tCCD=1, tRCD=17 tRAS=45 tRP=19 tRC=64
n_cmd=103410 n_nop=78357 n_act=300 n_pre=284 n_ref_event=0 n_req=24572 n_rd=24572 n_rd_L2_A=0 n_write=0 n_wr_bk=0 bw_util=0.2376
n_activity=77493 dram_eff=0.3171
bk0: 1792a 98798i bk1: 1792a 98866i bk2: 1792a 98932i bk3: 1792a 99034i bk4: 1620a 99937i bk5: 1616a 99816i bk6: 1280a 101559i bk7: 1280a 101469i bk8: 1280a 101512i bk9: 1280a 101456i bk10: 1452a 101218i bk11: 1452a 101193i bk12: 1536a 101187i bk13: 1536a 100989i bk14: 1536a 101132i bk15: 1536a 101181i 

------------------------------------------------------------------------

Row_Buffer_Locality = 0.987791
Row_Buffer_Locality_read = 0.987791
Row_Buffer_Locality_write = 0.000000
Bank_Level_Parallism = 1.471109
Bank_Level_Parallism_Col = 1.393853
Bank_Level_Parallism_Ready = 1.059254
write_to_read_ratio_blp_rw_average = 0.000000
GrpLevelPara = 1.383964 

BW Util details:
bwutil = 0.237617 
total_CMD = 103410 
util_bw = 24572 
Wasted_Col = 20568 
Wasted_Row = 3023 
Idle = 55247 

BW Util Bottlenecks: 
RCDc_limit = 4112 
RCDWRc_limit = 0 
WTRc_limit = 0 
RTWc_limit = 0 
CCDLc_limit = 21204 
rwq = 0 
CCDLc_limit_alone = 21204 
WTRc_limit_alone = 0 
RTWc_limit_alone = 0 

Commands details: 
total_CMD = 103410 
n_nop = 78357 
Read = 24572 
Write = 0 
L2_Alloc = 0 
L2_WB = 0 
n_act = 300 
n_pre = 284 
n_ref = 0 
n_req = 24572 
total_req = 24572 

Dual Bus Interface Util: 
issued_total_row = 584 
issued_total_col = 24572 
Row_Bus_Util =  0.005647 
CoL_Bus_Util = 0.237617 
Either_Row_CoL_Bus_Util = 0.242269 
Issued_on_Two_Bus_Simul_Util = 0.000996 
issued_two_Eff = 0.004111 
queue_avg = 1.659017 


dram_util_bins: 0 0 0 0 0 0 0 0 0 0
dram_eff_bins: 0 0 0 0 0 0 0 0 0 0
mrqq: max=59 avg=1.65902
Memory Partition 11 (kid=1): 
Cache L2_bank_022 (kid=1):
MSHR contents (kid=1)

Cache L2_bank_023 (kid=1):
MSHR contents (kid=1)

In Dram Latency Queue (total = 0, matching kid = 0): 
DRAM[11]: 16 bks, busW=16 BL=2 CL=19, tRRD=5 tCCD=1, tRCD=17 tRAS=45 tRP=19 tRC=64
n_cmd=103410 n_nop=78339 n_act=306 n_pre=290 n_ref_event=0 n_req=24568 n_rd=24568 n_rd_L2_A=0 n_write=0 n_wr_bk=0 bw_util=0.2376
n_activity=77473 dram_eff=0.3171
bk0: 1792a 99206i bk1: 1792a 98926i bk2: 1792a 99157i bk3: 1792a 98664i bk4: 1616a 99722i bk5: 1616a 99792i bk6: 1280a 101525i bk7: 1280a 101459i bk8: 1280a 101432i bk9: 1280a 101505i bk10: 1452a 101092i bk11: 1452a 101111i bk12: 1536a 101066i bk13: 1536a 100981i bk14: 1536a 101257i bk15: 1536a 101166i 

------------------------------------------------------------------------

Row_Buffer_Locality = 0.987545
Row_Buffer_Locality_read = 0.987545
Row_Buffer_Locality_write = 0.000000
Bank_Level_Parallism = 1.463669
Bank_Level_Parallism_Col = 1.382425
Bank_Level_Parallism_Ready = 1.058857
write_to_read_ratio_blp_rw_average = 0.000000
GrpLevelPara = 1.373202 

BW Util details:
bwutil = 0.237579 
total_CMD = 103410 
util_bw = 24568 
Wasted_Col = 21112 
Wasted_Row = 2874 
Idle = 54856 

BW Util Bottlenecks: 
RCDc_limit = 4263 
RCDWRc_limit = 0 
WTRc_limit = 0 
RTWc_limit = 0 
CCDLc_limit = 21609 
rwq = 0 
CCDLc_limit_alone = 21609 
WTRc_limit_alone = 0 
RTWc_limit_alone = 0 

Commands details: 
total_CMD = 103410 
n_nop = 78339 
Read = 24568 
Write = 0 
L2_Alloc = 0 
L2_WB = 0 
n_act = 306 
n_pre = 290 
n_ref = 0 
n_req = 24568 
total_req = 24568 

Dual Bus Interface Util: 
issued_total_row = 596 
issued_total_col = 24568 
Row_Bus_Util =  0.005763 
CoL_Bus_Util = 0.237579 
Either_Row_CoL_Bus_Util = 0.242443 
Issued_on_Two_Bus_Simul_Util = 0.000899 
issued_two_Eff = 0.003709 
queue_avg = 1.686984 


dram_util_bins: 0 0 0 0 0 0 0 0 0 0
dram_eff_bins: 0 0 0 0 0 0 0 0 0 0
mrqq: max=58 avg=1.68698
Memory Partition 12 (kid=1): 
Cache L2_bank_024 (kid=1):
MSHR contents (kid=1)

Cache L2_bank_025 (kid=1):
MSHR contents (kid=1)

In Dram Latency Queue (total = 0, matching kid = 0): 
DRAM[12]: 16 bks, busW=16 BL=2 CL=19, tRRD=5 tCCD=1, tRCD=17 tRAS=45 tRP=19 tRC=64
n_cmd=103410 n_nop=103410 n_act=0 n_pre=0 n_ref_event=0 n_req=0 n_rd=0 n_rd_L2_A=0 n_write=0 n_wr_bk=0 bw_util=0
n_activity=0 dram_eff=0
bk0: 0a 103410i bk1: 0a 103410i bk2: 0a 103410i bk3: 0a 103410i bk4: 0a 103410i bk5: 0a 103410i bk6: 0a 103410i bk7: 0a 103410i bk8: 0a 103410i bk9: 0a 103410i bk10: 0a 103410i bk11: 0a 103410i bk12: 0a 103410i bk13: 0a 103410i bk14: 0a 103410i bk15: 0a 103410i 

------------------------------------------------------------------------

Row_Buffer_Locality = 0.000000
Row_Buffer_Locality_read = 0.000000
Row_Buffer_Locality_write = 0.000000
Bank_Level_Parallism = 0.000000
Bank_Level_Parallism_Col = 0.000000
Bank_Level_Parallism_Ready = 0.000000
write_to_read_ratio_blp_rw_average = 0.000000
GrpLevelPara = 0.000000 

BW Util details:
bwutil = 0.000000 
total_CMD = 103410 
util_bw = 0 
Wasted_Col = 0 
Wasted_Row = 0 
Idle = 103410 

BW Util Bottlenecks: 
RCDc_limit = 0 
RCDWRc_limit = 0 
WTRc_limit = 0 
RTWc_limit = 0 
CCDLc_limit = 0 
rwq = 0 
CCDLc_limit_alone = 0 
WTRc_limit_alone = 0 
RTWc_limit_alone = 0 

Commands details: 
total_CMD = 103410 
n_nop = 103410 
Read = 0 
Write = 0 
L2_Alloc = 0 
L2_WB = 0 
n_act = 0 
n_pre = 0 
n_ref = 0 
n_req = 0 
total_req = 0 

Dual Bus Interface Util: 
issued_total_row = 0 
issued_total_col = 0 
Row_Bus_Util =  0.000000 
CoL_Bus_Util = 0.000000 
Either_Row_CoL_Bus_Util = 0.000000 
Issued_on_Two_Bus_Simul_Util = 0.000000 
issued_two_Eff = 0.000000 
queue_avg = 0.000000 


dram_util_bins: 0 0 0 0 0 0 0 0 0 0
dram_eff_bins: 0 0 0 0 0 0 0 0 0 0
mrqq: max=0 avg=0
Memory Partition 13 (kid=1): 
Cache L2_bank_026 (kid=1):
MSHR contents (kid=1)

Cache L2_bank_027 (kid=1):
MSHR contents (kid=1)

In Dram Latency Queue (total = 0, matching kid = 0): 
DRAM[13]: 16 bks, busW=16 BL=2 CL=19, tRRD=5 tCCD=1, tRCD=17 tRAS=45 tRP=19 tRC=64
n_cmd=103410 n_nop=103410 n_act=0 n_pre=0 n_ref_event=0 n_req=0 n_rd=0 n_rd_L2_A=0 n_write=0 n_wr_bk=0 bw_util=0
n_activity=0 dram_eff=0
bk0: 0a 103410i bk1: 0a 103410i bk2: 0a 103410i bk3: 0a 103410i bk4: 0a 103410i bk5: 0a 103410i bk6: 0a 103410i bk7: 0a 103410i bk8: 0a 103410i bk9: 0a 103410i bk10: 0a 103410i bk11: 0a 103410i bk12: 0a 103410i bk13: 0a 103410i bk14: 0a 103410i bk15: 0a 103410i 

------------------------------------------------------------------------

Row_Buffer_Locality = 0.000000
Row_Buffer_Locality_read = 0.000000
Row_Buffer_Locality_write = 0.000000
Bank_Level_Parallism = 0.000000
Bank_Level_Parallism_Col = 0.000000
Bank_Level_Parallism_Ready = 0.000000
write_to_read_ratio_blp_rw_average = 0.000000
GrpLevelPara = 0.000000 

BW Util details:
bwutil = 0.000000 
total_CMD = 103410 
util_bw = 0 
Wasted_Col = 0 
Wasted_Row = 0 
Idle = 103410 

BW Util Bottlenecks: 
RCDc_limit = 0 
RCDWRc_limit = 0 
WTRc_limit = 0 
RTWc_limit = 0 
CCDLc_limit = 0 
rwq = 0 
CCDLc_limit_alone = 0 
WTRc_limit_alone = 0 
RTWc_limit_alone = 0 

Commands details: 
total_CMD = 103410 
n_nop = 103410 
Read = 0 
Write = 0 
L2_Alloc = 0 
L2_WB = 0 
n_act = 0 
n_pre = 0 
n_ref = 0 
n_req = 0 
total_req = 0 

Dual Bus Interface Util: 
issued_total_row = 0 
issued_total_col = 0 
Row_Bus_Util =  0.000000 
CoL_Bus_Util = 0.000000 
Either_Row_CoL_Bus_Util = 0.000000 
Issued_on_Two_Bus_Simul_Util = 0.000000 
issued_two_Eff = 0.000000 
queue_avg = 0.000000 


dram_util_bins: 0 0 0 0 0 0 0 0 0 0
dram_eff_bins: 0 0 0 0 0 0 0 0 0 0
mrqq: max=0 avg=0
Memory Partition 14 (kid=1): 
Cache L2_bank_028 (kid=1):
MSHR contents (kid=1)

Cache L2_bank_029 (kid=1):
MSHR contents (kid=1)

In Dram Latency Queue (total = 0, matching kid = 0): 
DRAM[14]: 16 bks, busW=16 BL=2 CL=19, tRRD=5 tCCD=1, tRCD=17 tRAS=45 tRP=19 tRC=64
n_cmd=103410 n_nop=103410 n_act=0 n_pre=0 n_ref_event=0 n_req=0 n_rd=0 n_rd_L2_A=0 n_write=0 n_wr_bk=0 bw_util=0
n_activity=0 dram_eff=0
bk0: 0a 103410i bk1: 0a 103410i bk2: 0a 103410i bk3: 0a 103410i bk4: 0a 103410i bk5: 0a 103410i bk6: 0a 103410i bk7: 0a 103410i bk8: 0a 103410i bk9: 0a 103410i bk10: 0a 103410i bk11: 0a 103410i bk12: 0a 103410i bk13: 0a 103410i bk14: 0a 103410i bk15: 0a 103410i 

------------------------------------------------------------------------

Row_Buffer_Locality = 0.000000
Row_Buffer_Locality_read = 0.000000
Row_Buffer_Locality_write = 0.000000
Bank_Level_Parallism = 0.000000
Bank_Level_Parallism_Col = 0.000000
Bank_Level_Parallism_Ready = 0.000000
write_to_read_ratio_blp_rw_average = 0.000000
GrpLevelPara = 0.000000 

BW Util details:
bwutil = 0.000000 
total_CMD = 103410 
util_bw = 0 
Wasted_Col = 0 
Wasted_Row = 0 
Idle = 103410 

BW Util Bottlenecks: 
RCDc_limit = 0 
RCDWRc_limit = 0 
WTRc_limit = 0 
RTWc_limit = 0 
CCDLc_limit = 0 
rwq = 0 
CCDLc_limit_alone = 0 
WTRc_limit_alone = 0 
RTWc_limit_alone = 0 

Commands details: 
total_CMD = 103410 
n_nop = 103410 
Read = 0 
Write = 0 
L2_Alloc = 0 
L2_WB = 0 
n_act = 0 
n_pre = 0 
n_ref = 0 
n_req = 0 
total_req = 0 

Dual Bus Interface Util: 
issued_total_row = 0 
issued_total_col = 0 
Row_Bus_Util =  0.000000 
CoL_Bus_Util = 0.000000 
Either_Row_CoL_Bus_Util = 0.000000 
Issued_on_Two_Bus_Simul_Util = 0.000000 
issued_two_Eff = 0.000000 
queue_avg = 0.000000 


dram_util_bins: 0 0 0 0 0 0 0 0 0 0
dram_eff_bins: 0 0 0 0 0 0 0 0 0 0
mrqq: max=0 avg=0
Memory Partition 15 (kid=1): 
Cache L2_bank_030 (kid=1):
MSHR contents (kid=1)

Cache L2_bank_031 (kid=1):
MSHR contents (kid=1)

In Dram Latency Queue (total = 0, matching kid = 0): 
DRAM[15]: 16 bks, busW=16 BL=2 CL=19, tRRD=5 tCCD=1, tRCD=17 tRAS=45 tRP=19 tRC=64
n_cmd=103410 n_nop=103410 n_act=0 n_pre=0 n_ref_event=0 n_req=0 n_rd=0 n_rd_L2_A=0 n_write=0 n_wr_bk=0 bw_util=0
n_activity=0 dram_eff=0
bk0: 0a 103410i bk1: 0a 103410i bk2: 0a 103410i bk3: 0a 103410i bk4: 0a 103410i bk5: 0a 103410i bk6: 0a 103410i bk7: 0a 103410i bk8: 0a 103410i bk9: 0a 103410i bk10: 0a 103410i bk11: 0a 103410i bk12: 0a 103410i bk13: 0a 103410i bk14: 0a 103410i bk15: 0a 103410i 

------------------------------------------------------------------------

Row_Buffer_Locality = 0.000000
Row_Buffer_Locality_read = 0.000000
Row_Buffer_Locality_write = 0.000000
Bank_Level_Parallism = 0.000000
Bank_Level_Parallism_Col = 0.000000
Bank_Level_Parallism_Ready = 0.000000
write_to_read_ratio_blp_rw_average = 0.000000
GrpLevelPara = 0.000000 

BW Util details:
bwutil = 0.000000 
total_CMD = 103410 
util_bw = 0 
Wasted_Col = 0 
Wasted_Row = 0 
Idle = 103410 

BW Util Bottlenecks: 
RCDc_limit = 0 
RCDWRc_limit = 0 
WTRc_limit = 0 
RTWc_limit = 0 
CCDLc_limit = 0 
rwq = 0 
CCDLc_limit_alone = 0 
WTRc_limit_alone = 0 
RTWc_limit_alone = 0 

Commands details: 
total_CMD = 103410 
n_nop = 103410 
Read = 0 
Write = 0 
L2_Alloc = 0 
L2_WB = 0 
n_act = 0 
n_pre = 0 
n_ref = 0 
n_req = 0 
total_req = 0 

Dual Bus Interface Util: 
issued_total_row = 0 
issued_total_col = 0 
Row_Bus_Util =  0.000000 
CoL_Bus_Util = 0.000000 
Either_Row_CoL_Bus_Util = 0.000000 
Issued_on_Two_Bus_Simul_Util = 0.000000 
issued_two_Eff = 0.000000 
queue_avg = 0.000000 


dram_util_bins: 0 0 0 0 0 0 0 0 0 0
dram_eff_bins: 0 0 0 0 0 0 0 0 0 0
mrqq: max=0 avg=0
Memory Partition 16 (kid=1): 
Cache L2_bank_032 (kid=1):
MSHR contents (kid=1)

Cache L2_bank_033 (kid=1):
MSHR contents (kid=1)

In Dram Latency Queue (total = 0, matching kid = 0): 
[...]
total_req = 0 

Dual Bus Interface Util: 
issued_total_row = 0 
issued_total_col = 0 
Row_Bus_Util =  0.000000 
CoL_Bus_Util = 0.000000 
Either_Row_CoL_Bus_Util = 0.000000 
Issued_on_Two_Bus_Simul_Util = 0.000000 
issued_two_Eff = 0.000000 
queue_avg = 0.000000 


dram_util_bins: 0 0 0 0 0 0 0 0 0 0
dram_eff_bins: 0 0 0 0 0 0 0 0 0 0
mrqq: max=0 avg=0
Memory Partition 19 (kid=1): 
Cache L2_bank_038 (kid=1):
MSHR contents (kid=1)

Cache L2_bank_039 (kid=1):
MSHR contents (kid=1)

In Dram Latency Queue (total = 0, matching kid = 0): 
DRAM[19]: 16 bks, busW=16 BL=2 CL=19, tRRD=5 tCCD=1, tRCD=17 tRAS=45 tRP=19 tRC=64
n_cmd=103410 n_nop=103410 n_act=0 n_pre=0 n_ref_event=0 n_req=0 n_rd=0 n_rd_L2_A=0 n_write=0 n_wr_bk=0 bw_util=0
n_activity=0 dram_eff=0
bk0: 0a 103410i bk1: 0a 103410i bk2: 0a 103410i bk3: 0a 103410i bk4: 0a 103410i bk5: 0a 103410i bk6: 0a 103410i bk7: 0a 103410i bk8: 0a 103410i bk9: 0a 103410i bk10: 0a 103410i bk11: 0a 103410i bk12: 0a 103410i bk13: 0a 103410i bk14: 0a 103410i bk15: 0a 103410i 

------------------------------------------------------------------------

Row_Buffer_Locality = 0.000000
Row_Buffer_Locality_read = 0.000000
Row_Buffer_Locality_write = 0.000000
Bank_Level_Parallism = 0.000000
Bank_Level_Parallism_Col = 0.000000
Bank_Level_Parallism_Ready = 0.000000
write_to_read_ratio_blp_rw_average = 0.000000
GrpLevelPara = 0.000000 

BW Util details:
bwutil = 0.000000 
total_CMD = 103410 
util_bw = 0 
Wasted_Col = 0 
Wasted_Row = 0 
Idle = 103410 

BW Util Bottlenecks: 
RCDc_limit = 0 
RCDWRc_limit = 0 
WTRc_limit = 0 
RTWc_limit = 0 
CCDLc_limit = 0 
rwq = 0 
CCDLc_limit_alone = 0 
WTRc_limit_alone = 0 
RTWc_limit_alone = 0 

Commands details: 
total_CMD = 103410 
n_nop = 103410 
Read = 0 
Write = 0 
L2_Alloc = 0 
L2_WB = 0 
n_act = 0 
n_pre = 0 
n_ref = 0 
n_req = 0 
total_req = 0 

Dual Bus Interface Util: 
issued_total_row = 0 
issued_total_col = 0 
Row_Bus_Util =  0.000000 
CoL_Bus_Util = 0.000000 
Either_Row_CoL_Bus_Util = 0.000000 
Issued_on_Two_Bus_Simul_Util = 0.000000 
issued_two_Eff = 0.000000 
queue_avg = 0.000000 


dram_util_bins: 0 0 0 0 0 0 0 0 0 0
dram_eff_bins: 0 0 0 0 0 0 0 0 0 0
mrqq: max=0 avg=0
Memory Partition 20 (kid=1): 
Cache L2_bank_040 (kid=1):
MSHR contents (kid=1)

Cache L2_bank_041 (kid=1):
MSHR contents (kid=1)

In Dram Latency Queue (total = 0, matching kid = 0): 
DRAM[20]: 16 bks, busW=16 BL=2 CL=19, tRRD=5 tCCD=1, tRCD=17 tRAS=45 tRP=19 tRC=64
n_cmd=103410 n_nop=103410 n_act=0 n_pre=0 n_ref_event=0 n_req=0 n_rd=0 n_rd_L2_A=0 n_write=0 n_wr_bk=0 bw_util=0
n_activity=0 dram_eff=0
bk0: 0a 103410i bk1: 0a 103410i bk2: 0a 103410i bk3: 0a 103410i bk4: 0a 103410i bk5: 0a 103410i bk6: 0a 103410i bk7: 0a 103410i bk8: 0a 103410i bk9: 0a 103410i bk10: 0a 103410i bk11: 0a 103410i bk12: 0a 103410i bk13: 0a 103410i bk14: 0a 103410i bk15: 0a 103410i 

------------------------------------------------------------------------

Row_Buffer_Locality = 0.000000
Row_Buffer_Locality_read = 0.000000
Row_Buffer_Locality_write = 0.000000
Bank_Level_Parallism = 0.000000
Bank_Level_Parallism_Col = 0.000000
Bank_Level_Parallism_Ready = 0.000000
write_to_read_ratio_blp_rw_average = 0.000000
GrpLevelPara = 0.000000 

BW Util details:
bwutil = 0.000000 
total_CMD = 103410 
util_bw = 0 
Wasted_Col = 0 
Wasted_Row = 0 
Idle = 103410 

BW Util Bottlenecks: 
RCDc_limit = 0 
RCDWRc_limit = 0 
WTRc_limit = 0 
RTWc_limit = 0 
CCDLc_limit = 0 
rwq = 0 
CCDLc_limit_alone = 0 
WTRc_limit_alone = 0 
RTWc_limit_alone = 0 

Commands details: 
total_CMD = 103410 
n_nop = 103410 
Read = 0 
Write = 0 
L2_Alloc = 0 
L2_WB = 0 
n_act = 0 
n_pre = 0 
n_ref = 0 
n_req = 0 
total_req = 0 

Dual Bus Interface Util: 
issued_total_row = 0 
issued_total_col = 0 
Row_Bus_Util =  0.000000 
CoL_Bus_Util = 0.000000 
Either_Row_CoL_Bus_Util = 0.000000 
Issued_on_Two_Bus_Simul_Util = 0.000000 
issued_two_Eff = 0.000000 
queue_avg = 0.000000 


dram_util_bins: 0 0 0 0 0 0 0 0 0 0
dram_eff_bins: 0 0 0 0 0 0 0 0 0 0
mrqq: max=0 avg=0
Memory Partition 21 (kid=1): 
Cache L2_bank_042 (kid=1):
MSHR contents (kid=1)

Cache L2_bank_043 (kid=1):
MSHR contents (kid=1)

In Dram Latency Queue (total = 0, matching kid = 0): 
DRAM[21]: 16 bks, busW=16 BL=2 CL=19, tRRD=5 tCCD=1, tRCD=17 tRAS=45 tRP=19 tRC=64
n_cmd=103410 n_nop=103410 n_act=0 n_pre=0 n_ref_event=0 n_req=0 n_rd=0 n_rd_L2_A=0 n_write=0 n_wr_bk=0 bw_util=0
n_activity=0 dram_eff=0
bk0: 0a 103410i bk1: 0a 103410i bk2: 0a 103410i bk3: 0a 103410i bk4: 0a 103410i bk5: 0a 103410i bk6: 0a 103410i bk7: 0a 103410i bk8: 0a 103410i bk9: 0a 103410i bk10: 0a 103410i bk11: 0a 103410i bk12: 0a 103410i bk13: 0a 103410i bk14: 0a 103410i bk15: 0a 103410i 

------------------------------------------------------------------------

Row_Buffer_Locality = 0.000000
Row_Buffer_Locality_read = 0.000000
Row_Buffer_Locality_write = 0.000000
Bank_Level_Parallism = 0.000000
Bank_Level_Parallism_Col = 0.000000
Bank_Level_Parallism_Ready = 0.000000
write_to_read_ratio_blp_rw_average = 0.000000
GrpLevelPara = 0.000000 

BW Util details:
bwutil = 0.000000 
total_CMD = 103410 
util_bw = 0 
Wasted_Col = 0 
Wasted_Row = 0 
Idle = 103410 

BW Util Bottlenecks: 
RCDc_limit = 0 
RCDWRc_limit = 0 
WTRc_limit = 0 
RTWc_limit = 0 
CCDLc_limit = 0 
rwq = 0 
CCDLc_limit_alone = 0 
WTRc_limit_alone = 0 
RTWc_limit_alone = 0 

Commands details: 
total_CMD = 103410 
n_nop = 103410 
Read = 0 
Write = 0 
L2_Alloc = 0 
L2_WB = 0 
n_act = 0 
n_pre = 0 
n_ref = 0 
n_req = 0 
total_req = 0 

Dual Bus Interface Util: 
issued_total_row = 0 
issued_total_col = 0 
Row_Bus_Util =  0.000000 
CoL_Bus_Util = 0.000000 
Either_Row_CoL_Bus_Util = 0.000000 
Issued_on_Two_Bus_Simul_Util = 0.000000 
issued_two_Eff = 0.000000 
queue_avg = 0.000000 


dram_util_bins: 0 0 0 0 0 0 0 0 0 0
dram_eff_bins: 0 0 0 0 0 0 0 0 0 0
mrqq: max=0 avg=0
Memory Partition 22 (kid=1): 
Cache L2_bank_044 (kid=1):
MSHR contents (kid=1)

Cache L2_bank_045 (kid=1):
MSHR contents (kid=1)

In Dram Latency Queue (total = 0, matching kid = 0): 
DRAM[22]: 16 bks, busW=16 BL=2 CL=19, tRRD=5 tCCD=1, tRCD=17 tRAS=45 tRP=19 tRC=64
n_cmd=103410 n_nop=103410 n_act=0 n_pre=0 n_ref_event=0 n_req=0 n_rd=0 n_rd_L2_A=0 n_write=0 n_wr_bk=0 bw_util=0
n_activity=0 dram_eff=0
bk0: 0a 103410i bk1: 0a 103410i bk2: 0a 103410i bk3: 0a 103410i bk4: 0a 103410i bk5: 0a 103410i bk6: 0a 103410i bk7: 0a 103410i bk8: 0a 103410i bk9: 0a 103410i bk10: 0a 103410i bk11: 0a 103410i bk12: 0a 103410i bk13: 0a 103410i bk14: 0a 103410i bk15: 0a 103410i 

------------------------------------------------------------------------

Row_Buffer_Locality = 0.000000
Row_Buffer_Locality_read = 0.000000
Row_Buffer_Locality_write = 0.000000
Bank_Level_Parallism = 0.000000
Bank_Level_Parallism_Col = 0.000000
Bank_Level_Parallism_Ready = 0.000000
write_to_read_ratio_blp_rw_average = 0.000000
GrpLevelPara = 0.000000 

BW Util details:
bwutil = 0.000000 
total_CMD = 103410 
util_bw = 0 
Wasted_Col = 0 
Wasted_Row = 0 
Idle = 103410 

BW Util Bottlenecks: 
RCDc_limit = 0 
RCDWRc_limit = 0 
WTRc_limit = 0 
RTWc_limit = 0 
CCDLc_limit = 0 
rwq = 0 
CCDLc_limit_alone = 0 
WTRc_limit_alone = 0 
RTWc_limit_alone = 0 

Commands details: 
total_CMD = 103410 
n_nop = 103410 
Read = 0 
Write = 0 
L2_Alloc = 0 
L2_WB = 0 
n_act = 0 
n_pre = 0 
n_ref = 0 
n_req = 0 
total_req = 0 

Dual Bus Interface Util: 
issued_total_row = 0 
issued_total_col = 0 
Row_Bus_Util =  0.000000 
CoL_Bus_Util = 0.000000 
Either_Row_CoL_Bus_Util = 0.000000 
Issued_on_Two_Bus_Simul_Util = 0.000000 
issued_two_Eff = 0.000000 
queue_avg = 0.000000 


dram_util_bins: 0 0 0 0 0 0 0 0 0 0
dram_eff_bins: 0 0 0 0 0 0 0 0 0 0
mrqq: max=0 avg=0
Memory Partition 23 (kid=1): 
Cache L2_bank_046 (kid=1):
MSHR contents (kid=1)

Cache L2_bank_047 (kid=1):
MSHR contents (kid=1)

In Dram Latency Queue (total = 0, matching kid = 0): 
DRAM[23]: 16 bks, busW=16 BL=2 CL=19, tRRD=5 tCCD=1, tRCD=17 tRAS=45 tRP=19 tRC=64
n_cmd=103410 n_nop=103410 n_act=0 n_pre=0 n_ref_event=0 n_req=0 n_rd=0 n_rd_L2_A=0 n_write=0 n_wr_bk=0 bw_util=0
n_activity=0 dram_eff=0
bk0: 0a 103410i bk1: 0a 103410i bk2: 0a 103410i bk3: 0a 103410i bk4: 0a 103410i bk5: 0a 103410i bk6: 0a 103410i bk7: 0a 103410i bk8: 0a 103410i bk9: 0a 103410i bk10: 0a 103410i bk11: 0a 103410i bk12: 0a 103410i bk13: 0a 103410i bk14: 0a 103410i bk15: 0a 103410i 

------------------------------------------------------------------------

Row_Buffer_Locality = 0.000000
Row_Buffer_Locality_read = 0.000000
Row_Buffer_Locality_write = 0.000000
Bank_Level_Parallism = 0.000000
Bank_Level_Parallism_Col = 0.000000
Bank_Level_Parallism_Ready = 0.000000
write_to_read_ratio_blp_rw_average = 0.000000
GrpLevelPara = 0.000000 

BW Util details:
bwutil = 0.000000 
total_CMD = 103410 
util_bw = 0 
Wasted_Col = 0 
Wasted_Row = 0 
Idle = 103410 

BW Util Bottlenecks: 
RCDc_limit = 0 
RCDWRc_limit = 0 
WTRc_limit = 0 
RTWc_limit = 0 
CCDLc_limit = 0 
rwq = 0 
CCDLc_limit_alone = 0 
WTRc_limit_alone = 0 
RTWc_limit_alone = 0 

Commands details: 
total_CMD = 103410 
n_nop = 103410 
Read = 0 
Write = 0 
L2_Alloc = 0 
L2_WB = 0 
n_act = 0 
n_pre = 0 
n_ref = 0 
n_req = 0 
total_req = 0 

Dual Bus Interface Util: 
issued_total_row = 0 
issued_total_col = 0 
Row_Bus_Util =  0.000000 
CoL_Bus_Util = 0.000000 
Either_Row_CoL_Bus_Util = 0.000000 
Issued_on_Two_Bus_Simul_Util = 0.000000 
issued_two_Eff = 0.000000 
queue_avg = 0.000000 


dram_util_bins: 0 0 0 0 0 0 0 0 0 0
dram_eff_bins: 0 0 0 0 0 0 0 0 0 0
mrqq: max=0 avg=0

========= L2 cache stats =========
L2_cache_bank[0]: Access = 0, Miss = 0, Miss_rate = -nan, Pending_hits = 0, Reservation_fails = 0
L2_cache_bank[1]: Access = 0, Miss = 0, Miss_rate = -nan, Pending_hits = 0, Reservation_fails = 0
L2_cache_bank[2]: Access = 0, Miss = 0, Miss_rate = -nan, Pending_hits = 0, Reservation_fails = 0
L2_cache_bank[3]: Access = 0, Miss = 0, Miss_rate = -nan, Pending_hits = 0, Reservation_fails = 0
L2_cache_bank[4]: Access = 0, Miss = 0, Miss_rate = -nan, Pending_hits = 0, Reservation_fails = 0
L2_cache_bank[5]: Access = 0, Miss = 0, Miss_rate = -nan, Pending_hits = 0, Reservation_fails = 0
L2_cache_bank[6]: Access = 0, Miss = 0, Miss_rate = -nan, Pending_hits = 0, Reservation_fails = 0
L2_cache_bank[7]: Access = 0, Miss = 0, Miss_rate = -nan, Pending_hits = 0, Reservation_fails = 0
L2_cache_bank[8]: Access = 0, Miss = 0, Miss_rate = -nan, Pending_hits = 0, Reservation_fails = 0
L2_cache_bank[9]: Access = 0, Miss = 0, Miss_rate = -nan, Pending_hits = 0, Reservation_fails = 0
L2_cache_bank[10]: Access = 0, Miss = 0, Miss_rate = -nan, Pending_hits = 0, Reservation_fails = 0
L2_cache_bank[11]: Access = 0, Miss = 0, Miss_rate = -nan, Pending_hits = 0, Reservation_fails = 0
L2_cache_bank[12]: Access = 29342, Miss = 12968, Miss_rate = 0.442, Pending_hits = 311, Reservation_fails = 0
L2_cache_bank[13]: Access = 29343, Miss = 12968, Miss_rate = 0.442, Pending_hits = 310, Reservation_fails = 0
L2_cache_bank[14]: Access = 29344, Miss = 12968, Miss_rate = 0.442, Pending_hits = 317, Reservation_fails = 0
L2_cache_bank[15]: Access = 29342, Miss = 12968, Miss_rate = 0.442, Pending_hits = 323, Reservation_fails = 0
L2_cache_bank[16]: Access = 29362, Miss = 12974, Miss_rate = 0.442, Pending_hits = 317, Reservation_fails = 0
L2_cache_bank[17]: Access = 29365, Miss = 12976, Miss_rate = 0.442, Pending_hits = 317, Reservation_fails = 0
L2_cache_bank[18]: Access = 29367, Miss = 12976, Miss_rate = 0.442, Pending_hits = 323, Reservation_fails = 0
L2_cache_bank[19]: Access = 29368, Miss = 12976, Miss_rate = 0.442, Pending_hits = 329, Reservation_fails = 0
L2_cache_bank[20]: Access = 29359, Miss = 12972, Miss_rate = 0.442, Pending_hits = 299, Reservation_fails = 0
L2_cache_bank[21]: Access = 29353, Miss = 12968, Miss_rate = 0.442, Pending_hits = 320, Reservation_fails = 0
L2_cache_bank[22]: Access = 29350, Miss = 12968, Miss_rate = 0.442, Pending_hits = 321, Reservation_fails = 0
L2_cache_bank[23]: Access = 29353, Miss = 12968, Miss_rate = 0.442, Pending_hits = 312, Reservation_fails = 0
L2_cache_bank[24]: Access = 0, Miss = 0, Miss_rate = -nan, Pending_hits = 0, Reservation_fails = 0
L2_cache_bank[25]: Access = 0, Miss = 0, Miss_rate = -nan, Pending_hits = 0, Reservation_fails = 0
L2_cache_bank[26]: Access = 0, Miss = 0, Miss_rate = -nan, Pending_hits = 0, Reservation_fails = 0
L2_cache_bank[27]: Access = 0, Miss = 0, Miss_rate = -nan, Pending_hits = 0, Reservation_fails = 0
L2_cache_bank[28]: Access = 0, Miss = 0, Miss_rate = -nan, Pending_hits = 0, Reservation_fails = 0
L2_cache_bank[29]: Access = 0, Miss = 0, Miss_rate = -nan, Pending_hits = 0, Reservation_fails = 0
L2_cache_bank[30]: Access = 0, Miss = 0, Miss_rate = -nan, Pending_hits = 0, Reservation_fails = 0
L2_cache_bank[31]: Access = 0, Miss = 0, Miss_rate = -nan, Pending_hits = 0, Reservation_fails = 0
L2_cache_bank[32]: Access = 0, Miss = 0, Miss_rate = -nan, Pending_hits = 0, Reservation_fails = 0
L2_cache_bank[33]: Access = 0, Miss = 0, Miss_rate = -nan, Pending_hits = 0, Reservation_fails = 0
L2_cache_bank[34]: Access = 0, Miss = 0, Miss_rate = -nan, Pending_hits = 0, Reservation_fails = 0
L2_cache_bank[35]: Access = 0, Miss = 0, Miss_rate = -nan, Pending_hits = 0, Reservation_fails = 0
L2_cache_bank[36]: Access = 0, Miss = 0, Miss_rate = -nan, Pending_hits = 0, Reservation_fails = 0
L2_cache_bank[37]: Access = 0, Miss = 0, Miss_rate = -nan, Pending_hits = 0, Reservation_fails = 0
L2_cache_bank[38]: Access = 0, Miss = 0, Miss_rate = -nan, Pending_hits = 0, Reservation_fails = 0
L2_cache_bank[39]: Access = 0, Miss = 0, Miss_rate = -nan, Pending_hits = 0, Reservation_fails = 0
L2_cache_bank[40]: Access = 0, Miss = 0, Miss_rate = -nan, Pending_hits = 0, Reservation_fails = 0
L2_cache_bank[41]: Access = 0, Miss = 0, Miss_rate = -nan, Pending_hits = 0, Reservation_fails = 0
L2_cache_bank[42]: Access = 0, Miss = 0, Miss_rate = -nan, Pending_hits = 0, Reservation_fails = 0
L2_cache_bank[43]: Access = 0, Miss = 0, Miss_rate = -nan, Pending_hits = 0, Reservation_fails = 0
L2_cache_bank[44]: Access = 0, Miss = 0, Miss_rate = -nan, Pending_hits = 0, Reservation_fails = 0
L2_cache_bank[45]: Access = 0, Miss = 0, Miss_rate = -nan, Pending_hits = 0, Reservation_fails = 0
L2_cache_bank[46]: Access = 0, Miss = 0, Miss_rate = -nan, Pending_hits = 0, Reservation_fails = 0
L2_cache_bank[47]: Access = 0, Miss = 0, Miss_rate = -nan, Pending_hits = 0, Reservation_fails = 0
L2_total_cache_accesses = 352248
L2_total_cache_misses = 155650
L2_total_cache_miss_rate = 0.4419
L2_total_cache_pending_hits = 3799
L2_total_cache_reservation_fails = 0
L2_total_cache_breakdown:
	L2_cache_stats_breakdown[GLOBAL_ACC_R][HIT] = 4383
	L2_cache_stats_breakdown[GLOBAL_ACC_R][HIT_RESERVED] = 3799
	L2_cache_stats_breakdown[GLOBAL_ACC_R][MISS] = 36866
	L2_cache_stats_breakdown[GLOBAL_ACC_R][RESERVATION_FAIL] = 0
	L2_cache_stats_breakdown[GLOBAL_ACC_R][SECTOR_MISS] = 110592
	L2_cache_stats_breakdown[GLOBAL_ACC_R][MSHR_HIT] = 3799
	L2_cache_stats_breakdown[LOCAL_ACC_R][HIT] = 0
	L2_cache_stats_breakdown[LOCAL_ACC_R][HIT_RESERVED] = 0
	L2_cache_stats_breakdown[LOCAL_ACC_R][MISS] = 0
	L2_cache_stats_breakdown[LOCAL_ACC_R][RESERVATION_FAIL] = 0
	L2_cache_stats_breakdown[LOCAL_ACC_R][SECTOR_MISS] = 0
	L2_cache_stats_breakdown[LOCAL_ACC_R][MSHR_HIT] = 0
	L2_cache_stats_breakdown[CONST_ACC_R][HIT] = 0
	L2_cache_stats_breakdown[CONST_ACC_R][HIT_RESERVED] = 0
	L2_cache_stats_breakdown[CONST_ACC_R][MISS] = 0
	L2_cache_stats_breakdown[CONST_ACC_R][RESERVATION_FAIL] = 0
	L2_cache_stats_breakdown[CONST_ACC_R][SECTOR_MISS] = 0
	L2_cache_stats_breakdown[CONST_ACC_R][MSHR_HIT] = 0
	L2_cache_stats_breakdown[TEXTURE_ACC_R][HIT] = 0
	L2_cache_stats_breakdown[TEXTURE_ACC_R][HIT_RESERVED] = 0
	L2_cache_stats_breakdown[TEXTURE_ACC_R][MISS] = 0
	L2_cache_stats_breakdown[TEXTURE_ACC_R][RESERVATION_FAIL] = 0
	L2_cache_stats_breakdown[TEXTURE_ACC_R][SECTOR_MISS] = 0
	L2_cache_stats_breakdown[TEXTURE_ACC_R][MSHR_HIT] = 0
	L2_cache_stats_breakdown[GLOBAL_ACC_W][HIT] = 188416
	L2_cache_stats_breakdown[GLOBAL_ACC_W][HIT_RESERVED] = 0
	L2_cache_stats_breakdown[GLOBAL_ACC_W][MISS] = 2048
	L2_cache_stats_breakdown[GLOBAL_ACC_W][RESERVATION_FAIL] = 0
	L2_cache_stats_breakdown[GLOBAL_ACC_W][SECTOR_MISS] = 6144
	L2_cache_stats_breakdown[GLOBAL_ACC_W][MSHR_HIT] = 0
	L2_cache_stats_breakdown[LOCAL_ACC_W][HIT] = 0
	L2_cache_stats_breakdown[LOCAL_ACC_W][HIT_RESERVED] = 0
	L2_cache_stats_breakdown[LOCAL_ACC_W][MISS] = 0
	L2_cache_stats_breakdown[LOCAL_ACC_W][RESERVATION_FAIL] = 0
	L2_cache_stats_breakdown[LOCAL_ACC_W][SECTOR_MISS] = 0
	L2_cache_stats_breakdown[LOCAL_ACC_W][MSHR_HIT] = 0
	L2_cache_stats_breakdown[L1_WRBK_ACC][HIT] = 0
	L2_cache_stats_breakdown[L1_WRBK_ACC][HIT_RESERVED] = 0
	L2_cache_stats_breakdown[L1_WRBK_ACC][MISS] = 0
	L2_cache_stats_breakdown[L1_WRBK_ACC][RESERVATION_FAIL] = 0
	L2_cache_stats_breakdown[L1_WRBK_ACC][SECTOR_MISS] = 0
	L2_cache_stats_breakdown[L1_WRBK_ACC][MSHR_HIT] = 0
	L2_cache_stats_breakdown[L2_WRBK_ACC][HIT] = 0
	L2_cache_stats_breakdown[L2_WRBK_ACC][HIT_RESERVED] = 0
	L2_cache_stats_breakdown[L2_WRBK_ACC][MISS] = 0
	L2_cache_stats_breakdown[L2_WRBK_ACC][RESERVATION_FAIL] = 0
	L2_cache_stats_breakdown[L2_WRBK_ACC][SECTOR_MISS] = 0
	L2_cache_stats_breakdown[L2_WRBK_ACC][MSHR_HIT] = 0
	L2_cache_stats_breakdown[INST_ACC_R][HIT] = 0
	L2_cache_stats_breakdown[INST_ACC_R][HIT_RESERVED] = 0
	L2_cache_stats_breakdown[INST_ACC_R][MISS] = 0
	L2_cache_stats_breakdown[INST_ACC_R][RESERVATION_FAIL] = 0
	L2_cache_stats_breakdown[INST_ACC_R][SECTOR_MISS] = 0
	L2_cache_stats_breakdown[INST_ACC_R][MSHR_HIT] = 0
	L2_cache_stats_breakdown[L1_WR_ALLOC_R][HIT] = 0
	L2_cache_stats_breakdown[L1_WR_ALLOC_R][HIT_RESERVED] = 0
	L2_cache_stats_breakdown[L1_WR_ALLOC_R][MISS] = 0
	L2_cache_stats_breakdown[L1_WR_ALLOC_R][RESERVATION_FAIL] = 0
	L2_cache_stats_breakdown[L1_WR_ALLOC_R][SECTOR_MISS] = 0
	L2_cache_stats_breakdown[L1_WR_ALLOC_R][MSHR_HIT] = 0
	L2_cache_stats_breakdown[L2_WR_ALLOC_R][HIT] = 0
	L2_cache_stats_breakdown[L2_WR_ALLOC_R][HIT_RESERVED] = 0
	L2_cache_stats_breakdown[L2_WR_ALLOC_R][MISS] = 0
	L2_cache_stats_breakdown[L2_WR_ALLOC_R][RESERVATION_FAIL] = 0
	L2_cache_stats_breakdown[L2_WR_ALLOC_R][SECTOR_MISS] = 0
	L2_cache_stats_breakdown[L2_WR_ALLOC_R][MSHR_HIT] = 0
	L2_cache_stats_breakdown[GLOBAL_ACC_R][TOTAL_ACCESS] = 155640
	L2_cache_stats_breakdown[GLOBAL_ACC_W][TOTAL_ACCESS] = 196608
L2_total_cache_reservation_fail_breakdown:
L2_cache_data_port_util = 0.033
L2_cache_fill_port_util = 0.025

icnt_total_pkts_mem_to_simt=352248
icnt_total_pkts_simt_to_mem=352248
LD_mem_lat_dist  0 0 0 0 0 0 0 0 0 0 0 0 0 0 0 0 0 0 0 0 0 0 0 0 0 0 0
ST_mem_lat_dist  0 0 0 0 0 0 0 0 0 0 0 0 0 0 0 0 0 0 0 0 0 0 0 0 0 0 0
----------------------------Interconnect-DETAILS------------------------------
Req_Network_injected_packets_num = 352248
Req_Network_cycles = 122559
Req_Network_injected_packets_per_cycle =       2.8741
Req_Network_conflicts_per_cycle =       0.6873
Req_Network_conflicts_per_cycle_util =       0.7695
Req_Bank_Level_Parallism =       3.2180
Req_Network_in_buffer_full_per_cycle =       0.0000
Req_Network_in_buffer_avg_util =       1.1788
Req_Network_out_buffer_full_per_cycle =       0.0000
Req_Network_out_buffer_avg_util =       0.0599

Reply_Network_injected_packets_num = 352248
Reply_Network_cycles = 122559
Reply_Network_injected_packets_per_cycle =       2.8741
Reply_Network_conflicts_per_cycle =       2.1831
Reply_Network_conflicts_per_cycle_util =       2.4422
Reply_Bank_Level_Parallism =       3.2153
Reply_Network_in_buffer_full_per_cycle =       0.0000
Reply_Network_in_buffer_avg_util =       0.2554
Reply_Network_out_buffer_full_per_cycle =       0.0000
Reply_Network_out_buffer_avg_util =       0.2053
----------------------------END-of-Interconnect-DETAILS-----------------------


gpgpu_simulation_time = 0 days, 0 hrs, 6 min, 27 sec (387 sec)
gpgpu_simulation_rate = 0 (inst/sec)
gpgpu_simulation_rate = 0 (cycle/sec)
gpgpu_silicon_slowdown = Nan
GPGPU-Sim: *** simulation thread exiting ***
GPGPU-Sim: *** exit detected ***
