[fw] job 6242189786156565383 header loaded for kernel: /spapad/accel-sim-clean/sim_run_11.1_new_idle_validation/backprop-rodinia-3.1/65536/A30_MIG_4g.24gb-Accelwattch_SASS_SIM/traces/kernel-1-ctx_0x56237acb3f90.traceg.xz (uid=2)
[fw] launching kernel (job 6242189786156565383) name: _Z22bpnn_layerforward_CUDAPfS_S_S_ii uid: 2 local_stream_id: 0 global_stream_id: 2
GPGPU-Sim uArch: Shader 14 bind to kernel 2 '_Z22bpnn_layerforward_CUDAPfS_S_S_ii'
GPGPU-Sim uArch: Shader 15 bind to kernel 2 '_Z22bpnn_layerforward_CUDAPfS_S_S_ii'
GPGPU-Sim uArch: Shader 16 bind to kernel 2 '_Z22bpnn_layerforward_CUDAPfS_S_S_ii'
GPGPU-Sim uArch: Shader 17 bind to kernel 2 '_Z22bpnn_layerforward_CUDAPfS_S_S_ii'
GPGPU-Sim uArch: Shader 18 bind to kernel 2 '_Z22bpnn_layerforward_CUDAPfS_S_S_ii'
GPGPU-Sim uArch: Shader 19 bind to kernel 2 '_Z22bpnn_layerforward_CUDAPfS_S_S_ii'
GPGPU-Sim uArch: Shader 20 bind to kernel 2 '_Z22bpnn_layerforward_CUDAPfS_S_S_ii'
GPGPU-Sim uArch: Shader 21 bind to kernel 2 '_Z22bpnn_layerforward_CUDAPfS_S_S_ii'
GPGPU-Sim uArch: Shader 22 bind to kernel 2 '_Z22bpnn_layerforward_CUDAPfS_S_S_ii'
GPGPU-Sim uArch: Shader 23 bind to kernel 2 '_Z22bpnn_layerforward_CUDAPfS_S_S_ii'
GPGPU-Sim uArch: Shader 24 bind to kernel 2 '_Z22bpnn_layerforward_CUDAPfS_S_S_ii'
GPGPU-Sim uArch: Shader 25 bind to kernel 2 '_Z22bpnn_layerforward_CUDAPfS_S_S_ii'
GPGPU-Sim uArch: Shader 26 bind to kernel 2 '_Z22bpnn_layerforward_CUDAPfS_S_S_ii'
GPGPU-Sim uArch: Shader 27 bind to kernel 2 '_Z22bpnn_layerforward_CUDAPfS_S_S_ii'
kernel_name = _Z22bpnn_layerforward_CUDAPfS_S_S_ii
kernel_launch_uid = 2
kernel_stream_id = 2
gpu_sim_cycle = 225016
gpu_sim_insn = 95092736
gpu_sim_insn calculated by classic = 191553728
gpu_ipc =     422.6043
gpu_tot_sim_cycle = 225016
gpu_tot_sim_insn = 95092736
gpu_tot_ipc =     422.6043
gpu_tot_issued_cta = 4096
gpu_occupancy = 98.6799% 
gpu_tot_occupancy = 98.6799% 
max_total_param_size = 0
gpu_stall_dramfull = 0
gpu_stall_icnt2sh    = 0
partiton_level_parallism =       3.2117
partiton_level_parallism_total  =       3.2117
partiton_level_parallism_util =       3.3244
partiton_level_parallism_util_total  =       3.3244
L2_BW  =      72.1353 GB/Sec
L2_BW_total  =      72.1353 GB/Sec
L2_BW  calculated_by_classic=     147.5821 GB/Sec
L2_BW_total  calculated_by_classic=     147.5821 GB/Sec
gpu_total_sim_rate=228040

========= Core cache stats =========
L1I_cache:
	L1I_cache_total_cache_accesses = 0
	L1I_cache_total_cache_misses = 0
	L1I_cache_total_cache_pending_hits = 0
	L1I_cache_total_cache_reservation_fails = 0
L1D_cache:
	L1D_cache_core[0]: Access = 0, Miss = 0, Miss_rate = -nan, Pending_hits = 0, Reservation_fails = 0
	L1D_cache_core[1]: Access = 0, Miss = 0, Miss_rate = -nan, Pending_hits = 0, Reservation_fails = 0
	L1D_cache_core[2]: Access = 0, Miss = 0, Miss_rate = -nan, Pending_hits = 0, Reservation_fails = 0
	L1D_cache_core[3]: Access = 0, Miss = 0, Miss_rate = -nan, Pending_hits = 0, Reservation_fails = 0
	L1D_cache_core[4]: Access = 0, Miss = 0, Miss_rate = -nan, Pending_hits = 0, Reservation_fails = 0
	L1D_cache_core[5]: Access = 0, Miss = 0, Miss_rate = -nan, Pending_hits = 0, Reservation_fails = 0
	L1D_cache_core[6]: Access = 0, Miss = 0, Miss_rate = -nan, Pending_hits = 0, Reservation_fails = 0
	L1D_cache_core[7]: Access = 0, Miss = 0, Miss_rate = -nan, Pending_hits = 0, Reservation_fails = 0
	L1D_cache_core[8]: Access = 0, Miss = 0, Miss_rate = -nan, Pending_hits = 0, Reservation_fails = 0
	L1D_cache_core[9]: Access = 0, Miss = 0, Miss_rate = -nan, Pending_hits = 0, Reservation_fails = 0
	L1D_cache_core[10]: Access = 0, Miss = 0, Miss_rate = -nan, Pending_hits = 0, Reservation_fails = 0
	L1D_cache_core[11]: Access = 0, Miss = 0, Miss_rate = -nan, Pending_hits = 0, Reservation_fails = 0
	L1D_cache_core[12]: Access = 0, Miss = 0, Miss_rate = -nan, Pending_hits = 0, Reservation_fails = 0
	L1D_cache_core[13]: Access = 0, Miss = 0, Miss_rate = -nan, Pending_hits = 0, Reservation_fails = 0
	L1D_cache_core[14]: Access = 28714, Miss = 11720, Miss_rate = 0.408, Pending_hits = 2844, Reservation_fails = 10311
	L1D_cache_core[15]: Access = 28714, Miss = 11718, Miss_rate = 0.408, Pending_hits = 2608, Reservation_fails = 11283
	L1D_cache_core[16]: Access = 28714, Miss = 11720, Miss_rate = 0.408, Pending_hits = 2589, Reservation_fails = 10599
	L1D_cache_core[17]: Access = 28616, Miss = 11680, Miss_rate = 0.408, Pending_hits = 2942, Reservation_fails = 10301
	L1D_cache_core[18]: Access = 28714, Miss = 11720, Miss_rate = 0.408, Pending_hits = 2848, Reservation_fails = 10504
	L1D_cache_core[19]: Access = 28616, Miss = 11680, Miss_rate = 0.408, Pending_hits = 2656, Reservation_fails = 12215
	L1D_cache_core[20]: Access = 28714, Miss = 11720, Miss_rate = 0.408, Pending_hits = 2445, Reservation_fails = 11231
	L1D_cache_core[21]: Access = 28616, Miss = 11680, Miss_rate = 0.408, Pending_hits = 2540, Reservation_fails = 10878
	L1D_cache_core[22]: Access = 28616, Miss = 11676, Miss_rate = 0.408, Pending_hits = 2915, Reservation_fails = 9993
	L1D_cache_core[23]: Access = 28616, Miss = 11680, Miss_rate = 0.408, Pending_hits = 2899, Reservation_fails = 10555
	L1D_cache_core[24]: Access = 28714, Miss = 11720, Miss_rate = 0.408, Pending_hits = 3016, Reservation_fails = 9931
	L1D_cache_core[25]: Access = 28714, Miss = 11720, Miss_rate = 0.408, Pending_hits = 2807, Reservation_fails = 10331
	L1D_cache_core[26]: Access = 28616, Miss = 11680, Miss_rate = 0.408, Pending_hits = 2742, Reservation_fails = 10413
	L1D_cache_core[27]: Access = 28714, Miss = 11718, Miss_rate = 0.408, Pending_hits = 2354, Reservation_fails = 12139
	L1D_cache_core[28]: Access = 0, Miss = 0, Miss_rate = -nan, Pending_hits = 0, Reservation_fails = 0
	L1D_cache_core[29]: Access = 0, Miss = 0, Miss_rate = -nan, Pending_hits = 0, Reservation_fails = 0
	L1D_cache_core[30]: Access = 0, Miss = 0, Miss_rate = -nan, Pending_hits = 0, Reservation_fails = 0
	L1D_cache_core[31]: Access = 0, Miss = 0, Miss_rate = -nan, Pending_hits = 0, Reservation_fails = 0
	L1D_cache_core[32]: Access = 0, Miss = 0, Miss_rate = -nan, Pending_hits = 0, Reservation_fails = 0
	L1D_cache_core[33]: Access = 0, Miss = 0, Miss_rate = -nan, Pending_hits = 0, Reservation_fails = 0
	L1D_cache_core[34]: Access = 0, Miss = 0, Miss_rate = -nan, Pending_hits = 0, Reservation_fails = 0
	L1D_cache_core[35]: Access = 0, Miss = 0, Miss_rate = -nan, Pending_hits = 0, Reservation_fails = 0
	L1D_cache_core[36]: Access = 0, Miss = 0, Miss_rate = -nan, Pending_hits = 0, Reservation_fails = 0
	L1D_cache_core[37]: Access = 0, Miss = 0, Miss_rate = -nan, Pending_hits = 0, Reservation_fails = 0
	L1D_cache_core[38]: Access = 0, Miss = 0, Miss_rate = -nan, Pending_hits = 0, Reservation_fails = 0
	L1D_cache_core[39]: Access = 0, Miss = 0, Miss_rate = -nan, Pending_hits = 0, Reservation_fails = 0
	L1D_cache_core[40]: Access = 0, Miss = 0, Miss_rate = -nan, Pending_hits = 0, Reservation_fails = 0
	L1D_cache_core[41]: Access = 0, Miss = 0, Miss_rate = -nan, Pending_hits = 0, Reservation_fails = 0
	L1D_cache_core[42]: Access = 0, Miss = 0, Miss_rate = -nan, Pending_hits = 0, Reservation_fails = 0
	L1D_cache_core[43]: Access = 0, Miss = 0, Miss_rate = -nan, Pending_hits = 0, Reservation_fails = 0
	L1D_cache_core[44]: Access = 0, Miss = 0, Miss_rate = -nan, Pending_hits = 0, Reservation_fails = 0
	L1D_cache_core[45]: Access = 0, Miss = 0, Miss_rate = -nan, Pending_hits = 0, Reservation_fails = 0
	L1D_cache_core[46]: Access = 0, Miss = 0, Miss_rate = -nan, Pending_hits = 0, Reservation_fails = 0
	L1D_cache_core[47]: Access = 0, Miss = 0, Miss_rate = -nan, Pending_hits = 0, Reservation_fails = 0
	L1D_cache_core[48]: Access = 0, Miss = 0, Miss_rate = -nan, Pending_hits = 0, Reservation_fails = 0
	L1D_cache_core[49]: Access = 0, Miss = 0, Miss_rate = -nan, Pending_hits = 0, Reservation_fails = 0
	L1D_cache_core[50]: Access = 0, Miss = 0, Miss_rate = -nan, Pending_hits = 0, Reservation_fails = 0
	L1D_cache_core[51]: Access = 0, Miss = 0, Miss_rate = -nan, Pending_hits = 0, Reservation_fails = 0
	L1D_cache_core[52]: Access = 0, Miss = 0, Miss_rate = -nan, Pending_hits = 0, Reservation_fails = 0
	L1D_cache_core[53]: Access = 0, Miss = 0, Miss_rate = -nan, Pending_hits = 0, Reservation_fails = 0
	L1D_cache_core[54]: Access = 0, Miss = 0, Miss_rate = -nan, Pending_hits = 0, Reservation_fails = 0
	L1D_cache_core[55]: Access = 0, Miss = 0, Miss_rate = -nan, Pending_hits = 0, Reservation_fails = 0
	L1D_total_cache_accesses = 401408
	L1D_total_cache_misses = 163832
	L1D_total_cache_miss_rate = 0.4081
	L1D_total_cache_pending_hits = 38205
	L1D_total_cache_reservation_fails = 150684
	L1D_cache_data_port_util = 0.000
	L1D_cache_fill_port_util = 0.000
L1C_cache:
	L1C_cache_total_cache_accesses = 0
	L1C_cache_total_cache_misses = 0
	L1C_cache_total_cache_pending_hits = 0
	L1C_cache_total_cache_reservation_fails = 0
L1T_cache:
	L1T_cache_total_cache_accesses = 0
	L1T_cache_total_cache_misses = 0
	L1T_cache_total_cache_pending_hits = 0
	L1T_cache_total_cache_reservation_fails = 0

Total_core_cache_stats:
	Total_core_cache_stats_breakdown[GLOBAL_ACC_R][HIT] = 10955
	Total_core_cache_stats_breakdown[GLOBAL_ACC_R][HIT_RESERVED] = 38205
	Total_core_cache_stats_breakdown[GLOBAL_ACC_R][MISS] = 45043
	Total_core_cache_stats_breakdown[GLOBAL_ACC_R][RESERVATION_FAIL] = 81681
	Total_core_cache_stats_breakdown[GLOBAL_ACC_R][SECTOR_MISS] = 110597
	Total_core_cache_stats_breakdown[GLOBAL_ACC_R][MSHR_HIT] = 38205
	Total_core_cache_stats_breakdown[LOCAL_ACC_R][HIT] = 0
	Total_core_cache_stats_breakdown[LOCAL_ACC_R][HIT_RESERVED] = 0
	Total_core_cache_stats_breakdown[LOCAL_ACC_R][MISS] = 0
	Total_core_cache_stats_breakdown[LOCAL_ACC_R][RESERVATION_FAIL] = 0
	Total_core_cache_stats_breakdown[LOCAL_ACC_R][SECTOR_MISS] = 0
	Total_core_cache_stats_breakdown[LOCAL_ACC_R][MSHR_HIT] = 0
	Total_core_cache_stats_breakdown[CONST_ACC_R][HIT] = 0
	Total_core_cache_stats_breakdown[CONST_ACC_R][HIT_RESERVED] = 0
	Total_core_cache_stats_breakdown[CONST_ACC_R][MISS] = 0
	Total_core_cache_stats_breakdown[CONST_ACC_R][RESERVATION_FAIL] = 0
	Total_core_cache_stats_breakdown[CONST_ACC_R][SECTOR_MISS] = 0
	Total_core_cache_stats_breakdown[CONST_ACC_R][MSHR_HIT] = 0
	Total_core_cache_stats_breakdown[TEXTURE_ACC_R][HIT] = 0
	Total_core_cache_stats_breakdown[TEXTURE_ACC_R][HIT_RESERVED] = 0
	Total_core_cache_stats_breakdown[TEXTURE_ACC_R][MISS] = 0
	Total_core_cache_stats_breakdown[TEXTURE_ACC_R][RESERVATION_FAIL] = 0
	Total_core_cache_stats_breakdown[TEXTURE_ACC_R][SECTOR_MISS] = 0
	Total_core_cache_stats_breakdown[TEXTURE_ACC_R][MSHR_HIT] = 0
	Total_core_cache_stats_breakdown[GLOBAL_ACC_W][HIT] = 188416
	Total_core_cache_stats_breakdown[GLOBAL_ACC_W][HIT_RESERVED] = 0
	Total_core_cache_stats_breakdown[GLOBAL_ACC_W][MISS] = 4093
	Total_core_cache_stats_breakdown[GLOBAL_ACC_W][RESERVATION_FAIL] = 69003
	Total_core_cache_stats_breakdown[GLOBAL_ACC_W][SECTOR_MISS] = 4099
	Total_core_cache_stats_breakdown[GLOBAL_ACC_W][MSHR_HIT] = 0
	Total_core_cache_stats_breakdown[LOCAL_ACC_W][HIT] = 0
	Total_core_cache_stats_breakdown[LOCAL_ACC_W][HIT_RESERVED] = 0
	Total_core_cache_stats_breakdown[LOCAL_ACC_W][MISS] = 0
	Total_core_cache_stats_breakdown[LOCAL_ACC_W][RESERVATION_FAIL] = 0
	Total_core_cache_stats_breakdown[LOCAL_ACC_W][SECTOR_MISS] = 0
	Total_core_cache_stats_breakdown[LOCAL_ACC_W][MSHR_HIT] = 0
	Total_core_cache_stats_breakdown[L1_WRBK_ACC][HIT] = 0
	Total_core_cache_stats_breakdown[L1_WRBK_ACC][HIT_RESERVED] = 0
	Total_core_cache_stats_breakdown[L1_WRBK_ACC][MISS] = 0
	Total_core_cache_stats_breakdown[L1_WRBK_ACC][RESERVATION_FAIL] = 0
	Total_core_cache_stats_breakdown[L1_WRBK_ACC][SECTOR_MISS] = 0
	Total_core_cache_stats_breakdown[L1_WRBK_ACC][MSHR_HIT] = 0
	Total_core_cache_stats_breakdown[L2_WRBK_ACC][HIT] = 0
	Total_core_cache_stats_breakdown[L2_WRBK_ACC][HIT_RESERVED] = 0
	Total_core_cache_stats_breakdown[L2_WRBK_ACC][MISS] = 0
	Total_core_cache_stats_breakdown[L2_WRBK_ACC][RESERVATION_FAIL] = 0
	Total_core_cache_stats_breakdown[L2_WRBK_ACC][SECTOR_MISS] = 0
	Total_core_cache_stats_breakdown[L2_WRBK_ACC][MSHR_HIT] = 0
	Total_core_cache_stats_breakdown[INST_ACC_R][HIT] = 0
	Total_core_cache_stats_breakdown[INST_ACC_R][HIT_RESERVED] = 0
	Total_core_cache_stats_breakdown[INST_ACC_R][MISS] = 0
	Total_core_cache_stats_breakdown[INST_ACC_R][RESERVATION_FAIL] = 0
	Total_core_cache_stats_breakdown[INST_ACC_R][SECTOR_MISS] = 0
	Total_core_cache_stats_breakdown[INST_ACC_R][MSHR_HIT] = 0
	Total_core_cache_stats_breakdown[L1_WR_ALLOC_R][HIT] = 0
	Total_core_cache_stats_breakdown[L1_WR_ALLOC_R][HIT_RESERVED] = 0
	Total_core_cache_stats_breakdown[L1_WR_ALLOC_R][MISS] = 0
	Total_core_cache_stats_breakdown[L1_WR_ALLOC_R][RESERVATION_FAIL] = 0
	Total_core_cache_stats_breakdown[L1_WR_ALLOC_R][SECTOR_MISS] = 0
	Total_core_cache_stats_breakdown[L1_WR_ALLOC_R][MSHR_HIT] = 0
	Total_core_cache_stats_breakdown[L2_WR_ALLOC_R][HIT] = 0
	Total_core_cache_stats_breakdown[L2_WR_ALLOC_R][HIT_RESERVED] = 0
	Total_core_cache_stats_breakdown[L2_WR_ALLOC_R][MISS] = 0
	Total_core_cache_stats_breakdown[L2_WR_ALLOC_R][RESERVATION_FAIL] = 0
	Total_core_cache_stats_breakdown[L2_WR_ALLOC_R][SECTOR_MISS] = 0
	Total_core_cache_stats_breakdown[L2_WR_ALLOC_R][MSHR_HIT] = 0
	Total_core_cache_stats_breakdown[GLOBAL_ACC_R][TOTAL_ACCESS] = 204800
	Total_core_cache_stats_breakdown[GLOBAL_ACC_W][TOTAL_ACCESS] = 196608

Total_core_cache_fail_stats:
	Total_core_cache_fail_stats_breakdown[GLOBAL_ACC_R][MISS_QUEUE_FULL] = 81681
	Total_core_cache_fail_stats_breakdown[GLOBAL_ACC_W][MISS_QUEUE_FULL] = 69003
ctas_completed 4096, Shader 14 warp_id issue ditsribution:
warp_id:
0, 1, 2, 3, 4, 5, 6, 7, 8, 9, 10, 11, 12, 13, 14, 15, 16, 17, 18, 19, 20, 21, 22, 23, 24, 25, 26, 27, 28, 29, 30, 31, 32, 33, 34, 35, 36, 37, 38, 39, 40, 41, 42, 43, 44, 45, 46, 47, 48, 49, 50, 51, 52, 53, 54, 55, 56, 57, 58, 59, 60, 61, 62, 63, 
distro:
4699, 4699, 4699, 4699, 4699, 4699, 4699, 4699, 4699, 4699, 4699, 4699, 4699, 4699, 4699, 4699, 4699, 4699, 4699, 4699, 4699, 4699, 4699, 4699, 4699, 4699, 4699, 4699, 4699, 4699, 4699, 4699, 4699, 4699, 4699, 4699, 4699, 4699, 4699, 4699, 4572, 4572, 4572, 4572, 4572, 4572, 4572, 4572, 4572, 4572, 4572, 4572, 4572, 4572, 4572, 4572, 4572, 4572, 4572, 4572, 4572, 4572, 4572, 4572, 
gpgpu_n_tot_thrd_icount = 133169152
gpgpu_n_tot_w_icount = 4161536
gpgpu_n_stall_shd_mem = 65536
gpgpu_n_mem_read_local = 0
gpgpu_n_mem_write_local = 0
gpgpu_n_mem_read_global = 155640
gpgpu_n_mem_write_global = 196608
gpgpu_n_mem_texture = 0
gpgpu_n_mem_const = 0
gpgpu_n_load_insn  = 1114112
gpgpu_n_store_insn = 1114112
gpgpu_n_shmem_insn = 8323072
gpgpu_n_sstarr_insn = 0
gpgpu_n_tex_insn = 0
gpgpu_n_const_mem_insn = 0
gpgpu_n_param_mem_insn = 0
gpgpu_n_shmem_bkconflict = 0
gpgpu_n_l1cache_bkconflict = 0
gpgpu_n_intrawarp_mshr_merge = 0
gpgpu_n_cmem_portconflict = 0
gpgpu_stall_shd_mem[c_mem][resource_stall] = 0
gpgpu_stall_shd_mem[s_mem][bk_conf] = 0
gpgpu_stall_shd_mem[gl_mem][resource_stall] = 0
gpgpu_stall_shd_mem[gl_mem][coal_stall] = 65536
gpgpu_stall_shd_mem[gl_mem][data_port_stall] = 0
gpu_reg_bank_conflict_stalls = 0
Warp Occupancy Distribution:
Stall:2806830	W0_Idle:14233	W0_Scoreboard:45849	W1:0	W2:262144	W3:0	W4:0	W5:0	W6:0	W7:0	W8:0	W9:0	W10:0	W11:0	W12:0	W13:0	W14:0	W15:0	W16:475136	W17:0	W18:0	W19:0	W20:0	W21:0	W22:0	W23:0	W24:0	W25:0	W26:0	W27:0	W28:0	W29:0	W30:32768	W31:0	W32:2686976
single_issue_nums: WS0:1040384	WS1:1040384	WS2:1040384	WS3:1040384	
dual_issue_nums: WS0:0	WS1:0	WS2:0	WS3:0	
traffic_breakdown_core_to_mem[GLOBAL_ACC_R] = 1245120 {8:155640,}
traffic_breakdown_core_to_mem[GLOBAL_ACC_W] = 7864320 {40:196608,}
traffic_breakdown_mem_to_core[GLOBAL_ACC_R] = 6225600 {40:155640,}
traffic_breakdown_mem_to_core[GLOBAL_ACC_W] = 1572864 {8:196608,}
maxmflatency = 915 
max_icnt2mem_latency = 242 
maxmrqlatency = 240 
max_icnt2sh_latency = 83 
averagemflatency = 342 
avg_icnt2mem_latency = 54 
avg_icnt2sh_latency = 6 
mrq_lat_table:54892 	36706 	23486 	13622 	5687 	6866 	5823 	376 	0 	0 	0 	0 	0 	0 	0 	0 	0 	0 	0 	0 	0 	0 	0 	0 	0 	0 	0 	0 	0 	0 	0 	0 	
dq_lat_table:0 	0 	0 	0 	0 	0 	0 	0 	0 	0 	0 	0 	0 	0 	0 	0 	0 	0 	0 	0 	0 	0 	0 	0 	0 	0 	0 	0 	0 	0 	0 	0 	
mf_lat_table:0 	0 	0 	0 	0 	0 	0 	111372 	231463 	9413 	0 	0 	0 	0 	0 	0 	0 	0 	0 	0 	0 	0 	0 	0 	0 	0 	0 	0 	0 	0 	0 	0 	
icnt2mem_lat_table:0 	0 	0 	0 	0 	281137 	70229 	882 	0 	0 	0 	0 	0 	0 	0 	0 	0 	0 	0 	0 	0 	0 	0 	0 	
icnt2sh_lat_table:0 	202518 	67522 	44104 	29555 	8428 	121 	0 	0 	0 	0 	0 	0 	0 	0 	0 	0 	0 	0 	0 	0 	0 	0 	0 	
mf_lat_pw_table:0 	0 	0 	0 	0 	0 	0 	1 	222 	2 	0 	0 	0 	0 	0 	0 	0 	0 	0 	0 	0 	0 	0 	0 	0 	0 	0 	0 	0 	0 	0 	0 	
maximum concurrent accesses to same row:
dram[0]:         0         0         0         0         0         0         0         0         0         0         0         0         0         0         0         0 
dram[1]:         0         0         0         0         0         0         0         0         0         0         0         0         0         0         0         0 
dram[2]:         0         0         0         0         0         0         0         0         0         0         0         0         0         0         0         0 
dram[3]:         0         0         0         0         0         0         0         0         0         0         0         0         0         0         0         0 
dram[4]:         0         0         0         0         0         0         0         0         0         0         0         0         0         0         0         0 
dram[5]:         0         0         0         0         0         0         0         0         0         0         0         0         0         0         0         0 
dram[6]:       256       256       256       256       256       256       256       256       256       256       256       256       256       256       256       256 
dram[7]:       256       256       256       256       256       256       256       256       256       256       256       256       256       256       256       256 
dram[8]:       256       256       256       256       256       256       256       256       256       256       256       256       256       256       256       256 
dram[9]:       256       256       256       256       256       256       256       256       256       256       256       256       256       256       256       256 
dram[10]:       256       256       256       256       256       256       256       256       256       256       256       256       256       256       256       256 
dram[11]:       256       256       256       256       256       256       256       256       256       256       256       256       256       256       256       256 
dram[12]:         0         0         0         0         0         0         0         0         0         0         0         0         0         0         0         0 
dram[13]:         0         0         0         0         0         0         0         0         0         0         0         0         0         0         0         0 
dram[14]:         0         0         0         0         0         0         0         0         0         0         0         0         0         0         0         0 
dram[15]:         0         0         0         0         0         0         0         0         0         0         0         0         0         0         0         0 
dram[16]:         0         0         0         0         0         0         0         0         0         0         0         0         0         0         0         0 
dram[17]:         0         0         0         0         0         0         0         0         0         0         0         0         0         0         0         0 
dram[18]:         0         0         0         0         0         0         0         0         0         0         0         0         0         0         0         0 
dram[19]:         0         0         0         0         0         0         0         0         0         0         0         0         0         0         0         0 
dram[20]:         0         0         0         0         0         0         0         0         0         0         0         0         0         0         0         0 
dram[21]:         0         0         0         0         0         0         0         0         0         0         0         0         0         0         0         0 
dram[22]:         0         0         0         0         0         0         0         0         0         0         0         0         0         0         0         0 
dram[23]:         0         0         0         0         0         0         0         0         0         0         0         0         0         0         0         0 
maximum service time to same row:
dram[0]:         0         0         0         0         0         0         0         0         0         0         0         0         0         0         0         0 
dram[1]:         0         0         0         0         0         0         0         0         0         0         0         0         0         0         0         0 
dram[2]:         0         0         0         0         0         0         0         0         0         0         0         0         0         0         0         0 
dram[3]:         0         0         0         0         0         0         0         0         0         0         0         0         0         0         0         0 
dram[4]:         0         0         0         0         0         0         0         0         0         0         0         0         0         0         0         0 
dram[5]:         0         0         0         0         0         0         0         0         0         0         0         0         0         0         0         0 
dram[6]:     19863     19859     20019     20108     20204     20212     19842     19833     20031     20021     19993     19993     20541     20563     20214     20212 
dram[7]:     19873     19864     19698     19674     20217     20232     19842     19870     20006     20000     19998     20071     20570     20599     20210     20225 
dram[8]:     19866     19852     19941     19920     19890     19930     19872     19895     20026     20019     19943     19988     20556     20573     20268     20088 
dram[9]:     19826     19816     19915     19915     19930     19905     19883     19886     20019     19832     19986     19938     20591     20601     20098     20097 
dram[10]:     19831     19924     19908     19899     19886     19941     19824     19831     19829     19834     19932     20019     20555     20565     20034     20148 
dram[11]:     19906     19885     19913     19912     19963     19947     19862     19861     19870     19838     20019     20084     20538     20538     20149     20149 
dram[12]:         0         0         0         0         0         0         0         0         0         0         0         0         0         0         0         0 
dram[13]:         0         0         0         0         0         0         0         0         0         0         0         0         0         0         0         0 
dram[14]:         0         0         0         0         0         0         0         0         0         0         0         0         0         0         0         0 
dram[15]:         0         0         0         0         0         0         0         0         0         0         0         0         0         0         0         0 
dram[16]:         0         0         0         0         0         0         0         0         0         0         0         0         0         0         0         0 
dram[17]:         0         0         0         0         0         0         0         0         0         0         0         0         0         0         0         0 
dram[18]:         0         0         0         0         0         0         0         0         0         0         0         0         0         0         0         0 
dram[19]:         0         0         0         0         0         0         0         0         0         0         0         0         0         0         0         0 
dram[20]:         0         0         0         0         0         0         0         0         0         0         0         0         0         0         0         0 
dram[21]:         0         0         0         0         0         0         0         0         0         0         0         0         0         0         0         0 
dram[22]:         0         0         0         0         0         0         0         0         0         0         0         0         0         0         0         0 
dram[23]:         0         0         0         0         0         0         0         0         0         0         0         0         0         0         0         0 
average row accesses per activate:
dram[0]:  0.000000  0.000000  0.000000  0.000000  0.000000  0.000000  0.000000  0.000000  0.000000  0.000000  0.000000  0.000000  0.000000  0.000000  0.000000  0.000000 
dram[1]:  0.000000  0.000000  0.000000  0.000000  0.000000  0.000000  0.000000  0.000000  0.000000  0.000000  0.000000  0.000000  0.000000  0.000000  0.000000  0.000000 
dram[2]:  0.000000  0.000000  0.000000  0.000000  0.000000  0.000000  0.000000  0.000000  0.000000  0.000000  0.000000  0.000000  0.000000  0.000000  0.000000  0.000000 
dram[3]:  0.000000  0.000000  0.000000  0.000000  0.000000  0.000000  0.000000  0.000000  0.000000  0.000000  0.000000  0.000000  0.000000  0.000000  0.000000  0.000000 
dram[4]:  0.000000  0.000000  0.000000  0.000000  0.000000  0.000000  0.000000  0.000000  0.000000  0.000000  0.000000  0.000000  0.000000  0.000000  0.000000  0.000000 
dram[5]:  0.000000  0.000000  0.000000  0.000000  0.000000  0.000000  0.000000  0.000000  0.000000  0.000000  0.000000  0.000000  0.000000  0.000000  0.000000  0.000000 
dram[6]: 35.137257 35.137257 36.571430 36.571430 50.750000 40.599998 256.000000 256.000000 256.000000 256.000000 241.333328 241.333328 256.000000 256.000000 256.000000 256.000000 
dram[7]: 36.571430 45.948719 36.571430 35.137257 50.750000 40.599998 256.000000 256.000000 256.000000 256.000000 241.333328 241.333328 256.000000 256.000000 256.000000 256.000000 
dram[8]: 41.674419 36.571430 36.571430 41.674419 54.133335 45.111111 256.000000 256.000000 256.000000 256.000000 241.666672 242.000000 256.000000 256.000000 256.000000 256.000000 
dram[9]: 41.674419 35.137257 38.127659 32.581818 54.133335 50.750000 256.000000 256.000000 256.000000 256.000000 242.000000 242.000000 256.000000 256.000000 256.000000 256.000000 
dram[10]: 35.137257 43.707317 38.127659 33.811321 50.625000 44.888889 256.000000 256.000000 256.000000 256.000000 242.000000 242.000000 256.000000 256.000000 256.000000 256.000000 
dram[11]: 35.137257 35.137257 38.127659 39.822224 50.500000 53.866665 256.000000 256.000000 256.000000 256.000000 242.000000 242.000000 256.000000 256.000000 256.000000 256.000000 
dram[12]:  0.000000  0.000000  0.000000  0.000000  0.000000  0.000000  0.000000  0.000000  0.000000  0.000000  0.000000  0.000000  0.000000  0.000000  0.000000  0.000000 
dram[13]:  0.000000  0.000000  0.000000  0.000000  0.000000  0.000000  0.000000  0.000000  0.000000  0.000000  0.000000  0.000000  0.000000  0.000000  0.000000  0.000000 
dram[14]:  0.000000  0.000000  0.000000  0.000000  0.000000  0.000000  0.000000  0.000000  0.000000  0.000000  0.000000  0.000000  0.000000  0.000000  0.000000  0.000000 
dram[15]:  0.000000  0.000000  0.000000  0.000000  0.000000  0.000000  0.000000  0.000000  0.000000  0.000000  0.000000  0.000000  0.000000  0.000000  0.000000  0.000000 
dram[16]:  0.000000  0.000000  0.000000  0.000000  0.000000  0.000000  0.000000  0.000000  0.000000  0.000000  0.000000  0.000000  0.000000  0.000000  0.000000  0.000000 
dram[17]:  0.000000  0.000000  0.000000  0.000000  0.000000  0.000000  0.000000  0.000000  0.000000  0.000000  0.000000  0.000000  0.000000  0.000000  0.000000  0.000000 
dram[18]:  0.000000  0.000000  0.000000  0.000000  0.000000  0.000000  0.000000  0.000000  0.000000  0.000000  0.000000  0.000000  0.000000  0.000000  0.000000  0.000000 
dram[19]:  0.000000  0.000000  0.000000  0.000000  0.000000  0.000000  0.000000  0.000000  0.000000  0.000000  0.000000  0.000000  0.000000  0.000000  0.000000  0.000000 
dram[20]:  0.000000  0.000000  0.000000  0.000000  0.000000  0.000000  0.000000  0.000000  0.000000  0.000000  0.000000  0.000000  0.000000  0.000000  0.000000  0.000000 
dram[21]:  0.000000  0.000000  0.000000  0.000000  0.000000  0.000000  0.000000  0.000000  0.000000  0.000000  0.000000  0.000000  0.000000  0.000000  0.000000  0.000000 
dram[22]:  0.000000  0.000000  0.000000  0.000000  0.000000  0.000000  0.000000  0.000000  0.000000  0.000000  0.000000  0.000000  0.000000  0.000000  0.000000  0.000000 
dram[23]:  0.000000  0.000000  0.000000  0.000000  0.000000  0.000000  0.000000  0.000000  0.000000  0.000000  0.000000  0.000000  0.000000  0.000000  0.000000  0.000000 
average row locality = 147458/1892 = 77.937630
number of total memory accesses made:
dram[0]:         0         0         0         0         0         0         0         0         0         0         0         0         0         0         0         0 
dram[1]:         0         0         0         0         0         0         0         0         0         0         0         0         0         0         0         0 
dram[2]:         0         0         0         0         0         0         0         0         0         0         0         0         0         0         0         0 
dram[3]:         0         0         0         0         0         0         0         0         0         0         0         0         0         0         0         0 
dram[4]:         0         0         0         0         0         0         0         0         0         0         0         0         0         0         0         0 
dram[5]:         0         0         0         0         0         0         0         0         0         0         0         0         0         0         0         0 
dram[6]:         0         0         0         0         0         0         0         0         0         0         0         0         0         0         0         0 
dram[7]:         0         0         0         0         0         0         0         0         0         0         0         0         0         0         0         0 
dram[8]:         0         0         0         0         0         0         0         0         0         0         0         0         0         0         0         0 
dram[9]:         0         0         0         0         0         0         0         0         0         0         0         0         0         0         0         0 
dram[10]:         0         0         0         0         0         0         0         0         0         0         0         0         0         0         0         0 
dram[11]:         0         0         0         0         0         0         0         0         0         0         0         0         0         0         0         0 
dram[12]:         0         0         0         0         0         0         0         0         0         0         0         0         0         0         0         0 
dram[13]:         0         0         0         0         0         0         0         0         0         0         0         0         0         0         0         0 
dram[14]:         0         0         0         0         0         0         0         0         0         0         0         0         0         0         0         0 
dram[15]:         0         0         0         0         0         0         0         0         0         0         0         0         0         0         0         0 
dram[16]:         0         0         0         0         0         0         0         0         0         0         0         0         0         0         0         0 
dram[17]:         0         0         0         0         0         0         0         0         0         0         0         0         0         0         0         0 
dram[18]:         0         0         0         0         0         0         0         0         0         0         0         0         0         0         0         0 
dram[19]:         0         0         0         0         0         0         0         0         0         0         0         0         0         0         0         0 
dram[20]:         0         0         0         0         0         0         0         0         0         0         0         0         0         0         0         0 
dram[21]:         0         0         0         0         0         0         0         0         0         0         0         0         0         0         0         0 
dram[22]:         0         0         0         0         0         0         0         0         0         0         0         0         0         0         0         0 
dram[23]:         0         0         0         0         0         0         0         0         0         0         0         0         0         0         0         0 
total accesses: 0
min_bank_accesses = 0!
min_chip_accesses = 0!
number of total read accesses:
dram[0]:         0         0         0         0         0         0         0         0         0         0         0         0         0         0         0         0 
dram[1]:         0         0         0         0         0         0         0         0         0         0         0         0         0         0         0         0 
dram[2]:         0         0         0         0         0         0         0         0         0         0         0         0         0         0         0         0 
dram[3]:         0         0         0         0         0         0         0         0         0         0         0         0         0         0         0         0 
dram[4]:         0         0         0         0         0         0         0         0         0         0         0         0         0         0         0         0 
dram[5]:         0         0         0         0         0         0         0         0         0         0         0         0         0         0         0         0 
dram[6]:      1792      1792      1792      1792      1624      1624      1280      1280      1280      1280      1448      1448      1536      1536      1536      1536 
dram[7]:      1792      1792      1792      1792      1624      1624      1280      1280      1280      1280      1448      1448      1536      1536      1536      1536 
dram[8]:      1792      1792      1792      1792      1624      1624      1280      1280      1280      1280      1450      1452      1536      1536      1536      1536 
dram[9]:      1792      1792      1792      1792      1624      1624      1280      1280      1280      1280      1452      1452      1536      1536      1536      1536 
dram[10]:      1792      1792      1792      1792      1620      1616      1280      1280      1280      1280      1452      1452      1536      1536      1536      1536 
dram[11]:      1792      1792      1792      1792      1616      1616      1280      1280      1280      1280      1452      1452      1536      1536      1536      1536 
dram[12]:         0         0         0         0         0         0         0         0         0         0         0         0         0         0         0         0 
dram[13]:         0         0         0         0         0         0         0         0         0         0         0         0         0         0         0         0 
dram[14]:         0         0         0         0         0         0         0         0         0         0         0         0         0         0         0         0 
dram[15]:         0         0         0         0         0         0         0         0         0         0         0         0         0         0         0         0 
dram[16]:         0         0         0         0         0         0         0         0         0         0         0         0         0         0         0         0 
dram[17]:         0         0         0         0         0         0         0         0         0         0         0         0         0         0         0         0 
dram[18]:         0         0         0         0         0         0         0         0         0         0         0         0         0         0         0         0 
dram[19]:         0         0         0         0         0         0         0         0         0         0         0         0         0         0         0         0 
dram[20]:         0         0         0         0         0         0         0         0         0         0         0         0         0         0         0         0 
dram[21]:         0         0         0         0         0         0         0         0         0         0         0         0         0         0         0         0 
dram[22]:         0         0         0         0         0         0         0         0         0         0         0         0         0         0         0         0 
dram[23]:         0         0         0         0         0         0         0         0         0         0         0         0         0         0         0         0 
total dram reads = 147458
min_bank_accesses = 0!
min_chip_accesses = 0!
number of total write accesses:
dram[0]:         0         0         0         0         0         0         0         0         0         0         0         0         0         0         0         0 
dram[1]:         0         0         0         0         0         0         0         0         0         0         0         0         0         0         0         0 
dram[2]:         0         0         0         0         0         0         0         0         0         0         0         0         0         0         0         0 
dram[3]:         0         0         0         0         0         0         0         0         0         0         0         0         0         0         0         0 
dram[4]:         0         0         0         0         0         0         0         0         0         0         0         0         0         0         0         0 
dram[5]:         0         0         0         0         0         0         0         0         0         0         0         0         0         0         0         0 
dram[6]:         0         0         0         0         0         0         0         0         0         0         0         0         0         0         0         0 
dram[7]:         0         0         0         0         0         0         0         0         0         0         0         0         0         0         0         0 
dram[8]:         0         0         0         0         0         0         0         0         0         0         0         0         0         0         0         0 
dram[9]:         0         0         0         0         0         0         0         0         0         0         0         0         0         0         0         0 
dram[10]:         0         0         0         0         0         0         0         0         0         0         0         0         0         0         0         0 
dram[11]:         0         0         0         0         0         0         0         0         0         0         0         0         0         0         0         0 
dram[12]:         0         0         0         0         0         0         0         0         0         0         0         0         0         0         0         0 
dram[13]:         0         0         0         0         0         0         0         0         0         0         0         0         0         0         0         0 
dram[14]:         0         0         0         0         0         0         0         0         0         0         0         0         0         0         0         0 
dram[15]:         0         0         0         0         0         0         0         0         0         0         0         0         0         0         0         0 
dram[16]:         0         0         0         0         0         0         0         0         0         0         0         0         0         0         0         0 
dram[17]:         0         0         0         0         0         0         0         0         0         0         0         0         0         0         0         0 
dram[18]:         0         0         0         0         0         0         0         0         0         0         0         0         0         0         0         0 
dram[19]:         0         0         0         0         0         0         0         0         0         0         0         0         0         0         0         0 
dram[20]:         0         0         0         0         0         0         0         0         0         0         0         0         0         0         0         0 
dram[21]:         0         0         0         0         0         0         0         0         0         0         0         0         0         0         0         0 
dram[22]:         0         0         0         0         0         0         0         0         0         0         0         0         0         0         0         0 
dram[23]:         0         0         0         0         0         0         0         0         0         0         0         0         0         0         0         0 
total dram writes = 0
min_bank_accesses = 0!
min_chip_accesses = 0!
average mf latency per bank:
dram[0]:     none      none      none      none      none      none      none      none      none      none      none      none      none      none      none      none  
dram[1]:     none      none      none      none      none      none      none      none      none      none      none      none      none      none      none      none  
dram[2]:     none      none      none      none      none      none      none      none      none      none      none      none      none      none      none      none  
dram[3]:     none      none      none      none      none      none      none      none      none      none      none      none      none      none      none      none  
dram[4]:     none      none      none      none      none      none      none      none      none      none      none      none      none      none      none      none  
dram[5]:     none      none      none      none      none      none      none      none      none      none      none      none      none      none      none      none  
dram[6]:        747       753       743       748       792       806       952       962       951       965       835       849       774       788       758       768
dram[7]:        750       751       750       750       801       807       966       964       963       960       845       844       779       784       765       768
dram[8]:        751       753       748       747       801       802       960       958       958       958       844       845       777       781       766       764
dram[9]:        751       750       749       749       802       803       962       962       962       964       843       845       781       785       765       763
dram[10]:        750       746       750       750       799       802       963       962       962       961       842       848       784       781       765       766
dram[11]:        749       752       747       750       804       802       960       963       960       963       847       847       780       784       767       767
dram[12]:     none      none      none      none      none      none      none      none      none      none      none      none      none      none      none      none  
dram[13]:     none      none      none      none      none      none      none      none      none      none      none      none      none      none      none      none  
dram[14]:     none      none      none      none      none      none      none      none      none      none      none      none      none      none      none      none  
dram[15]:     none      none      none      none      none      none      none      none      none      none      none      none      none      none      none      none  
dram[16]:     none      none      none      none      none      none      none      none      none      none      none      none      none      none      none      none  
dram[17]:     none      none      none      none      none      none      none      none      none      none      none      none      none      none      none      none  
dram[18]:     none      none      none      none      none      none      none      none      none      none      none      none      none      none      none      none  
dram[19]:     none      none      none      none      none      none      none      none      none      none      none      none      none      none      none      none  
dram[20]:     none      none      none      none      none      none      none      none      none      none      none      none      none      none      none      none  
dram[21]:     none      none      none      none      none      none      none      none      none      none      none      none      none      none      none      none  
dram[22]:     none      none      none      none      none      none      none      none      none      none      none      none      none      none      none      none  
dram[23]:     none      none      none      none      none      none      none      none      none      none      none      none      none      none      none      none  
maximum mf latency per bank:
dram[0]:          0         0         0         0         0         0         0         0         0         0         0         0         0         0         0         0
dram[1]:          0         0         0         0         0         0         0         0         0         0         0         0         0         0         0         0
dram[2]:          0         0         0         0         0         0         0         0         0         0         0         0         0         0         0         0
dram[3]:          0         0         0         0         0         0         0         0         0         0         0         0         0         0         0         0
dram[4]:          0         0         0         0         0         0         0         0         0         0         0         0         0         0         0         0
dram[5]:          0         0         0         0         0         0         0         0         0         0         0         0         0         0         0         0
dram[6]:        653       612       605       627       636       638       510       530       522       545       749       778       832       915       544       557
dram[7]:        652       617       679       654       616       648       529       545       546       542       773       786       824       905       531       534
dram[8]:        638       640       601       614       616       685       519       534       517       510       810       812       777       856       532       547
dram[9]:        659       595       644       618       615       661       520       519       529       512       809       810       782       899       518       516
dram[10]:        651       668       618       640       599       615       530       512       538       527       814       773       865       892       524       538
dram[11]:        624       625       649       654       628       652       529       517       528       535       765       787       791       894       530       540
dram[12]:          0         0         0         0         0         0         0         0         0         0         0         0         0         0         0         0
dram[13]:          0         0         0         0         0         0         0         0         0         0         0         0         0         0         0         0
dram[14]:          0         0         0         0         0         0         0         0         0         0         0         0         0         0         0         0
dram[15]:          0         0         0         0         0         0         0         0         0         0         0         0         0         0         0         0
dram[16]:          0         0         0         0         0         0         0         0         0         0         0         0         0         0         0         0
dram[17]:          0         0         0         0         0         0         0         0         0         0         0         0         0         0         0         0
dram[18]:          0         0         0         0         0         0         0         0         0         0         0         0         0         0         0         0
dram[19]:          0         0         0         0         0         0         0         0         0         0         0         0         0         0         0         0
dram[20]:          0         0         0         0         0         0         0         0         0         0         0         0         0         0         0         0
dram[21]:          0         0         0         0         0         0         0         0         0         0         0         0         0         0         0         0
dram[22]:          0         0         0         0         0         0         0         0         0         0         0         0         0         0         0         0
dram[23]:          0         0         0         0         0         0         0         0         0         0         0         0         0         0         0         0
Memory Partition 0 (kid=2): 
Cache L2_bank_000 (kid=2):
MSHR contents (kid=2)

Cache L2_bank_001 (kid=2):
MSHR contents (kid=2)

In Dram Latency Queue (total = 52, matching kid = 0): 
DRAM[0]: 16 bks, busW=16 BL=2 CL=19, tRRD=5 tCCD=1, tRCD=17 tRAS=45 tRP=19 tRC=64
n_cmd=189858 n_nop=163306 n_act=0 n_pre=0 n_ref_event=0 n_req=0 n_rd=0 n_rd_L2_A=0 n_write=0 n_wr_bk=0 bw_util=0
n_activity=79636 dram_eff=0
bk0: 0a 185082i bk1: 0a 185865i bk2: 0a 185237i bk3: 0a 185383i bk4: 0a 185848i bk5: 0a 185942i bk6: 0a 187383i bk7: 0a 187199i bk8: 0a 187831i bk9: 0a 187862i bk10: 0a 186763i bk11: 0a 186534i bk12: 0a 187059i bk13: 0a 186860i bk14: 0a 187684i bk15: 0a 187683i 

------------------------------------------------------------------------

Row_Buffer_Locality = 0.000000
Row_Buffer_Locality_read = 0.000000
Row_Buffer_Locality_write = 0.000000
Bank_Level_Parallism = 0.000000
Bank_Level_Parallism_Col = 0.000000
Bank_Level_Parallism_Ready = 0.000000
write_to_read_ratio_blp_rw_average = 0.000000
GrpLevelPara = 0.000000 

BW Util details:
bwutil = 0.000000 
total_CMD = 189858 
util_bw = 26039 
Wasted_Col = 21326 
Wasted_Row = 3250 
Idle = 139243 

BW Util Bottlenecks: 
RCDc_limit = 0 
RCDWRc_limit = 0 
WTRc_limit = 0 
RTWc_limit = 0 
CCDLc_limit = 0 
rwq = 0 
CCDLc_limit_alone = 0 
WTRc_limit_alone = 0 
RTWc_limit_alone = 0 

Commands details: 
total_CMD = 189858 
n_nop = 163306 
Read = 0 
Write = 0 
L2_Alloc = 0 
L2_WB = 0 
n_act = 0 
n_pre = 0 
n_ref = 0 
n_req = 0 
total_req = 0 

Dual Bus Interface Util: 
issued_total_row = 616 
issued_total_col = 26039 
Row_Bus_Util =  0.003245 
CoL_Bus_Util = 0.137150 
Either_Row_CoL_Bus_Util = 0.139852 
Issued_on_Two_Bus_Simul_Util = 0.000543 
issued_two_Eff = 0.003879 
queue_avg = 1.293883 


dram_util_bins: 0 0 0 0 0 0 0 0 0 0
dram_eff_bins: 0 0 0 0 0 0 0 0 0 0
mrqq: max=64 avg=1.29388
Memory Partition 1 (kid=2): 
Cache L2_bank_002 (kid=2):
MSHR contents (kid=2)

Cache L2_bank_003 (kid=2):
MSHR contents (kid=2)

In Dram Latency Queue (total = 63, matching kid = 0): 
DRAM[1]: 16 bks, busW=16 BL=2 CL=19, tRRD=5 tCCD=1, tRCD=17 tRAS=45 tRP=19 tRC=64
n_cmd=189858 n_nop=163318 n_act=0 n_pre=0 n_ref_event=0 n_req=0 n_rd=0 n_rd_L2_A=0 n_write=0 n_wr_bk=0 bw_util=0
n_activity=79525 dram_eff=0
bk0: 0a 185274i bk1: 0a 185329i bk2: 0a 185244i bk3: 0a 185231i bk4: 0a 185936i bk5: 0a 185977i bk6: 0a 187288i bk7: 0a 187169i bk8: 0a 187880i bk9: 0a 187930i bk10: 0a 186659i bk11: 0a 186565i bk12: 0a 187093i bk13: 0a 186912i bk14: 0a 187701i bk15: 0a 187645i 

------------------------------------------------------------------------

Row_Buffer_Locality = 0.000000
Row_Buffer_Locality_read = 0.000000
Row_Buffer_Locality_write = 0.000000
Bank_Level_Parallism = 0.000000
Bank_Level_Parallism_Col = 0.000000
Bank_Level_Parallism_Ready = 0.000000
write_to_read_ratio_blp_rw_average = 0.000000
GrpLevelPara = 0.000000 

BW Util details:
bwutil = 0.000000 
total_CMD = 189858 
util_bw = 26023 
Wasted_Col = 21280 
Wasted_Row = 2812 
Idle = 139743 

BW Util Bottlenecks: 
RCDc_limit = 0 
RCDWRc_limit = 0 
WTRc_limit = 0 
RTWc_limit = 0 
CCDLc_limit = 0 
rwq = 0 
CCDLc_limit_alone = 0 
WTRc_limit_alone = 0 
RTWc_limit_alone = 0 

Commands details: 
total_CMD = 189858 
n_nop = 163318 
Read = 0 
Write = 0 
L2_Alloc = 0 
L2_WB = 0 
n_act = 0 
n_pre = 0 
n_ref = 0 
n_req = 0 
total_req = 0 

Dual Bus Interface Util: 
issued_total_row = 632 
issued_total_col = 26023 
Row_Bus_Util =  0.003329 
CoL_Bus_Util = 0.137066 
Either_Row_CoL_Bus_Util = 0.139789 
Issued_on_Two_Bus_Simul_Util = 0.000606 
issued_two_Eff = 0.004333 
queue_avg = 1.363809 


dram_util_bins: 0 0 0 0 0 0 0 0 0 0
dram_eff_bins: 0 0 0 0 0 0 0 0 0 0
mrqq: max=64 avg=1.36381
Memory Partition 2 (kid=2): 
Cache L2_bank_004 (kid=2):
MSHR contents (kid=2)

Cache L2_bank_005 (kid=2):
MSHR contents (kid=2)

In Dram Latency Queue (total = 72, matching kid = 0): 
DRAM[2]: 16 bks, busW=16 BL=2 CL=19, tRRD=5 tCCD=1, tRCD=17 tRAS=45 tRP=19 tRC=64
n_cmd=189858 n_nop=163305 n_act=0 n_pre=0 n_ref_event=0 n_req=0 n_rd=0 n_rd_L2_A=0 n_write=0 n_wr_bk=0 bw_util=0
n_activity=78635 dram_eff=0
bk0: 0a 185170i bk1: 0a 185494i bk2: 0a 185098i bk3: 0a 185225i bk4: 0a 186110i bk5: 0a 185737i bk6: 0a 187334i bk7: 0a 187334i bk8: 0a 187887i bk9: 0a 187895i bk10: 0a 186734i bk11: 0a 186562i bk12: 0a 187019i bk13: 0a 186668i bk14: 0a 187663i bk15: 0a 187649i 

------------------------------------------------------------------------

Row_Buffer_Locality = 0.000000
Row_Buffer_Locality_read = 0.000000
Row_Buffer_Locality_write = 0.000000
Bank_Level_Parallism = 0.000000
Bank_Level_Parallism_Col = 0.000000
Bank_Level_Parallism_Ready = 0.000000
write_to_read_ratio_blp_rw_average = 0.000000
GrpLevelPara = 0.000000 

BW Util details:
bwutil = 0.000000 
total_CMD = 189858 
util_bw = 26031 
Wasted_Col = 21053 
Wasted_Row = 3208 
Idle = 139566 

BW Util Bottlenecks: 
RCDc_limit = 0 
RCDWRc_limit = 0 
WTRc_limit = 0 
RTWc_limit = 0 
CCDLc_limit = 0 
rwq = 0 
CCDLc_limit_alone = 0 
WTRc_limit_alone = 0 
RTWc_limit_alone = 0 

Commands details: 
total_CMD = 189858 
n_nop = 163305 
Read = 0 
Write = 0 
L2_Alloc = 0 
L2_WB = 0 
n_act = 0 
n_pre = 0 
n_ref = 0 
n_req = 0 
total_req = 0 

Dual Bus Interface Util: 
issued_total_row = 632 
issued_total_col = 26031 
Row_Bus_Util =  0.003329 
CoL_Bus_Util = 0.137108 
Either_Row_CoL_Bus_Util = 0.139857 
Issued_on_Two_Bus_Simul_Util = 0.000579 
issued_two_Eff = 0.004143 
queue_avg = 1.339917 


dram_util_bins: 0 0 0 0 0 0 0 0 0 0
dram_eff_bins: 0 0 0 0 0 0 0 0 0 0
mrqq: max=64 avg=1.33992
Memory Partition 3 (kid=2): 
Cache L2_bank_006 (kid=2):
MSHR contents (kid=2)

Cache L2_bank_007 (kid=2):
MSHR contents (kid=2)

In Dram Latency Queue (total = 69, matching kid = 0): 
DRAM[3]: 16 bks, busW=16 BL=2 CL=19, tRRD=5 tCCD=1, tRCD=17 tRAS=45 tRP=19 tRC=64
n_cmd=189858 n_nop=163288 n_act=0 n_pre=0 n_ref_event=0 n_req=0 n_rd=0 n_rd_L2_A=0 n_write=0 n_wr_bk=0 bw_util=0
n_activity=78849 dram_eff=0
bk0: 0a 184850i bk1: 0a 185351i bk2: 0a 185362i bk3: 0a 185591i bk4: 0a 185707i bk5: 0a 185540i bk6: 0a 187406i bk7: 0a 187227i bk8: 0a 187930i bk9: 0a 187919i bk10: 0a 186798i bk11: 0a 186608i bk12: 0a 186979i bk13: 0a 186887i bk14: 0a 187633i bk15: 0a 187654i 

------------------------------------------------------------------------

Row_Buffer_Locality = 0.000000
Row_Buffer_Locality_read = 0.000000
Row_Buffer_Locality_write = 0.000000
Bank_Level_Parallism = 0.000000
Bank_Level_Parallism_Col = 0.000000
Bank_Level_Parallism_Ready = 0.000000
write_to_read_ratio_blp_rw_average = 0.000000
GrpLevelPara = 0.000000 

BW Util details:
bwutil = 0.000000 
total_CMD = 189858 
util_bw = 26028 
Wasted_Col = 21045 
Wasted_Row = 3509 
Idle = 139276 

BW Util Bottlenecks: 
RCDc_limit = 0 
RCDWRc_limit = 0 
WTRc_limit = 0 
RTWc_limit = 0 
CCDLc_limit = 0 
rwq = 0 
CCDLc_limit_alone = 0 
WTRc_limit_alone = 0 
RTWc_limit_alone = 0 

Commands details: 
total_CMD = 189858 
n_nop = 163288 
Read = 0 
Write = 0 
L2_Alloc = 0 
L2_WB = 0 
n_act = 0 
n_pre = 0 
n_ref = 0 
n_req = 0 
total_req = 0 

Dual Bus Interface Util: 
issued_total_row = 640 
issued_total_col = 26028 
Row_Bus_Util =  0.003371 
CoL_Bus_Util = 0.137092 
Either_Row_CoL_Bus_Util = 0.139947 
Issued_on_Two_Bus_Simul_Util = 0.000516 
issued_two_Eff = 0.003688 
queue_avg = 1.392420 


dram_util_bins: 0 0 0 0 0 0 0 0 0 0
dram_eff_bins: 0 0 0 0 0 0 0 0 0 0
mrqq: max=64 avg=1.39242
Memory Partition 4 (kid=2): 
Cache L2_bank_008 (kid=2):
MSHR contents (kid=2)

Cache L2_bank_009 (kid=2):
MSHR contents (kid=2)

In Dram Latency Queue (total = 59, matching kid = 0): 
DRAM[4]: 16 bks, busW=16 BL=2 CL=19, tRRD=5 tCCD=1, tRCD=17 tRAS=45 tRP=19 tRC=64
n_cmd=189858 n_nop=163307 n_act=0 n_pre=0 n_ref_event=0 n_req=0 n_rd=0 n_rd_L2_A=0 n_write=0 n_wr_bk=0 bw_util=0
n_activity=78842 dram_eff=0
bk0: 0a 185067i bk1: 0a 185124i bk2: 0a 184898i bk3: 0a 185345i bk4: 0a 185622i bk5: 0a 185904i bk6: 0a 187283i bk7: 0a 186988i bk8: 0a 187950i bk9: 0a 187940i bk10: 0a 186600i bk11: 0a 186534i bk12: 0a 187042i bk13: 0a 186912i bk14: 0a 187696i bk15: 0a 187660i 

------------------------------------------------------------------------

Row_Buffer_Locality = 0.000000
Row_Buffer_Locality_read = 0.000000
Row_Buffer_Locality_write = 0.000000
Bank_Level_Parallism = 0.000000
Bank_Level_Parallism_Col = 0.000000
Bank_Level_Parallism_Ready = 0.000000
write_to_read_ratio_blp_rw_average = 0.000000
GrpLevelPara = 0.000000 

BW Util details:
bwutil = 0.000000 
total_CMD = 189858 
util_bw = 26015 
Wasted_Col = 21500 
Wasted_Row = 3176 
Idle = 139167 

BW Util Bottlenecks: 
RCDc_limit = 0 
RCDWRc_limit = 0 
WTRc_limit = 0 
RTWc_limit = 0 
CCDLc_limit = 0 
rwq = 0 
CCDLc_limit_alone = 0 
WTRc_limit_alone = 0 
RTWc_limit_alone = 0 

Commands details: 
total_CMD = 189858 
n_nop = 163307 
Read = 0 
Write = 0 
L2_Alloc = 0 
L2_WB = 0 
n_act = 0 
n_pre = 0 
n_ref = 0 
n_req = 0 
total_req = 0 

Dual Bus Interface Util: 
issued_total_row = 650 
issued_total_col = 26015 
Row_Bus_Util =  0.003424 
CoL_Bus_Util = 0.137023 
Either_Row_CoL_Bus_Util = 0.139847 
Issued_on_Two_Bus_Simul_Util = 0.000600 
issued_two_Eff = 0.004294 
queue_avg = 1.374122 


dram_util_bins: 0 0 0 0 0 0 0 0 0 0
dram_eff_bins: 0 0 0 0 0 0 0 0 0 0
mrqq: max=64 avg=1.37412
Memory Partition 5 (kid=2): 
Cache L2_bank_010 (kid=2):
MSHR contents (kid=2)

Cache L2_bank_011 (kid=2):
MSHR contents (kid=2)

In Dram Latency Queue (total = 56, matching kid = 0): 
DRAM[5]: 16 bks, busW=16 BL=2 CL=19, tRRD=5 tCCD=1, tRCD=17 tRAS=45 tRP=19 tRC=64
n_cmd=189858 n_nop=163357 n_act=0 n_pre=0 n_ref_event=0 n_req=0 n_rd=0 n_rd_L2_A=0 n_write=0 n_wr_bk=0 bw_util=0
n_activity=79380 dram_eff=0
bk0: 0a 185695i bk1: 0a 185842i bk2: 0a 185212i bk3: 0a 185050i bk4: 0a 185921i bk5: 0a 186080i bk6: 0a 187344i bk7: 0a 187253i bk8: 0a 187935i bk9: 0a 187883i bk10: 0a 186653i bk11: 0a 186566i bk12: 0a 187111i bk13: 0a 186928i bk14: 0a 187637i bk15: 0a 187675i 

------------------------------------------------------------------------

Row_Buffer_Locality = 0.000000
Row_Buffer_Locality_read = 0.000000
Row_Buffer_Locality_write = 0.000000
Bank_Level_Parallism = 0.000000
Bank_Level_Parallism_Col = 0.000000
Bank_Level_Parallism_Ready = 0.000000
write_to_read_ratio_blp_rw_average = 0.000000
GrpLevelPara = 0.000000 

BW Util details:
bwutil = 0.000000 
total_CMD = 189858 
util_bw = 26016 
Wasted_Col = 21175 
Wasted_Row = 3054 
Idle = 139613 

BW Util Bottlenecks: 
RCDc_limit = 0 
RCDWRc_limit = 0 
WTRc_limit = 0 
RTWc_limit = 0 
CCDLc_limit = 0 
rwq = 0 
CCDLc_limit_alone = 0 
WTRc_limit_alone = 0 
RTWc_limit_alone = 0 

Commands details: 
total_CMD = 189858 
n_nop = 163357 
Read = 0 
Write = 0 
L2_Alloc = 0 
L2_WB = 0 
n_act = 0 
n_pre = 0 
n_ref = 0 
n_req = 0 
total_req = 0 

Dual Bus Interface Util: 
issued_total_row = 596 
issued_total_col = 26016 
Row_Bus_Util =  0.003139 
CoL_Bus_Util = 0.137029 
Either_Row_CoL_Bus_Util = 0.139583 
Issued_on_Two_Bus_Simul_Util = 0.000585 
issued_two_Eff = 0.004189 
queue_avg = 1.295473 


dram_util_bins: 0 0 0 0 0 0 0 0 0 0
dram_eff_bins: 0 0 0 0 0 0 0 0 0 0
mrqq: max=64 avg=1.29547
Memory Partition 6 (kid=2): 
Cache L2_bank_012 (kid=2):
MSHR contents (kid=2)

Cache L2_bank_013 (kid=2):
MSHR contents (kid=2)

In Dram Latency Queue (total = 0, matching kid = 0): 
DRAM[6]: 16 bks, busW=16 BL=2 CL=19, tRRD=5 tCCD=1, tRCD=17 tRAS=45 tRP=19 tRC=64
n_cmd=189858 n_nop=164733 n_act=328 n_pre=312 n_ref_event=0 n_req=24576 n_rd=24576 n_rd_L2_A=0 n_write=0 n_wr_bk=0 bw_util=0.1294
n_activity=77521 dram_eff=0.317
bk0: 1792a 185154i bk1: 1792a 185136i bk2: 1792a 185082i bk3: 1792a 185212i bk4: 1624a 186227i bk5: 1624a 185781i bk6: 1280a 188003i bk7: 1280a 187957i bk8: 1280a 187892i bk9: 1280a 187906i bk10: 1448a 187729i bk11: 1448a 187625i bk12: 1536a 187476i bk13: 1536a 187377i bk14: 1536a 187635i bk15: 1536a 187586i 

------------------------------------------------------------------------

Row_Buffer_Locality = 0.986654
Row_Buffer_Locality_read = 0.986654
Row_Buffer_Locality_write = 0.000000
Bank_Level_Parallism = 1.477499
Bank_Level_Parallism_Col = 1.383268
Bank_Level_Parallism_Ready = 1.064250
write_to_read_ratio_blp_rw_average = 0.000000
GrpLevelPara = 1.374718 

BW Util details:
bwutil = 0.129444 
total_CMD = 189858 
util_bw = 24576 
Wasted_Col = 21316 
Wasted_Row = 3195 
Idle = 140771 

BW Util Bottlenecks: 
RCDc_limit = 4695 
RCDWRc_limit = 0 
WTRc_limit = 0 
RTWc_limit = 0 
CCDLc_limit = 21444 
rwq = 0 
CCDLc_limit_alone = 21444 
WTRc_limit_alone = 0 
RTWc_limit_alone = 0 

Commands details: 
total_CMD = 189858 
n_nop = 164733 
Read = 24576 
Write = 0 
L2_Alloc = 0 
L2_WB = 0 
n_act = 328 
n_pre = 312 
n_ref = 0 
n_req = 24576 
total_req = 24576 

Dual Bus Interface Util: 
issued_total_row = 640 
issued_total_col = 24576 
Row_Bus_Util =  0.003371 
CoL_Bus_Util = 0.129444 
Either_Row_CoL_Bus_Util = 0.132336 
Issued_on_Two_Bus_Simul_Util = 0.000479 
issued_two_Eff = 0.003622 
queue_avg = 0.945565 


dram_util_bins: 0 0 0 0 0 0 0 0 0 0
dram_eff_bins: 0 0 0 0 0 0 0 0 0 0
mrqq: max=46 avg=0.945565
Memory Partition 7 (kid=2): 
Cache L2_bank_014 (kid=2):
MSHR contents (kid=2)

Cache L2_bank_015 (kid=2):
MSHR contents (kid=2)

In Dram Latency Queue (total = 0, matching kid = 0): 
DRAM[7]: 16 bks, busW=16 BL=2 CL=19, tRRD=5 tCCD=1, tRCD=17 tRAS=45 tRP=19 tRC=64
n_cmd=189858 n_nop=164771 n_act=316 n_pre=300 n_ref_event=0 n_req=24576 n_rd=24576 n_rd_L2_A=0 n_write=0 n_wr_bk=0 bw_util=0.1294
n_activity=77491 dram_eff=0.3171
bk0: 1792a 185247i bk1: 1792a 185728i bk2: 1792a 185230i bk3: 1792a 185090i bk4: 1624a 186189i bk5: 1624a 185736i bk6: 1280a 187971i bk7: 1280a 187957i bk8: 1280a 187993i bk9: 1280a 187963i bk10: 1448a 187595i bk11: 1448a 187582i bk12: 1536a 187547i bk13: 1536a 187381i bk14: 1536a 187602i bk15: 1536a 187500i 

------------------------------------------------------------------------

Row_Buffer_Locality = 0.987142
Row_Buffer_Locality_read = 0.987142
Row_Buffer_Locality_write = 0.000000
Bank_Level_Parallism = 1.471798
Bank_Level_Parallism_Col = 1.392300
Bank_Level_Parallism_Ready = 1.060384
write_to_read_ratio_blp_rw_average = 0.000000
GrpLevelPara = 1.380853 

BW Util details:
bwutil = 0.129444 
total_CMD = 189858 
util_bw = 24576 
Wasted_Col = 21001 
Wasted_Row = 3338 
Idle = 140943 

BW Util Bottlenecks: 
RCDc_limit = 4396 
RCDWRc_limit = 0 
WTRc_limit = 0 
RTWc_limit = 0 
CCDLc_limit = 21570 
rwq = 0 
CCDLc_limit_alone = 21570 
WTRc_limit_alone = 0 
RTWc_limit_alone = 0 

Commands details: 
total_CMD = 189858 
n_nop = 164771 
Read = 24576 
Write = 0 
L2_Alloc = 0 
L2_WB = 0 
n_act = 316 
n_pre = 300 
n_ref = 0 
n_req = 24576 
total_req = 24576 

Dual Bus Interface Util: 
issued_total_row = 616 
issued_total_col = 24576 
Row_Bus_Util =  0.003245 
CoL_Bus_Util = 0.129444 
Either_Row_CoL_Bus_Util = 0.132136 
Issued_on_Two_Bus_Simul_Util = 0.000553 
issued_two_Eff = 0.004185 
queue_avg = 0.997593 


dram_util_bins: 0 0 0 0 0 0 0 0 0 0
dram_eff_bins: 0 0 0 0 0 0 0 0 0 0
mrqq: max=56 avg=0.997593
Memory Partition 8 (kid=2): 
Cache L2_bank_016 (kid=2):
MSHR contents (kid=2)

Cache L2_bank_017 (kid=2):
MSHR contents (kid=2)

In Dram Latency Queue (total = 0, matching kid = 0): 
DRAM[8]: 16 bks, busW=16 BL=2 CL=19, tRRD=5 tCCD=1, tRCD=17 tRAS=45 tRP=19 tRC=64
n_cmd=189858 n_nop=164760 n_act=306 n_pre=290 n_ref_event=0 n_req=24582 n_rd=24582 n_rd_L2_A=0 n_write=0 n_wr_bk=0 bw_util=0.1295
n_activity=77832 dram_eff=0.3158
bk0: 1792a 185514i bk1: 1792a 185130i bk2: 1792a 185257i bk3: 1792a 185549i bk4: 1624a 186362i bk5: 1624a 186018i bk6: 1280a 188024i bk7: 1280a 187930i bk8: 1280a 188063i bk9: 1280a 188005i bk10: 1450a 187605i bk11: 1452a 187637i bk12: 1536a 187540i bk13: 1536a 187478i bk14: 1536a 187606i bk15: 1536a 187646i 

------------------------------------------------------------------------

Row_Buffer_Locality = 0.987552
Row_Buffer_Locality_read = 0.987552
Row_Buffer_Locality_write = 0.000000
Bank_Level_Parallism = 1.454020
Bank_Level_Parallism_Col = 1.375662
Bank_Level_Parallism_Ready = 1.061712
write_to_read_ratio_blp_rw_average = 0.000000
GrpLevelPara = 1.363620 

BW Util details:
bwutil = 0.129476 
total_CMD = 189858 
util_bw = 24582 
Wasted_Col = 21074 
Wasted_Row = 3137 
Idle = 141065 

BW Util Bottlenecks: 
RCDc_limit = 4259 
RCDWRc_limit = 0 
WTRc_limit = 0 
RTWc_limit = 0 
CCDLc_limit = 21474 
rwq = 0 
CCDLc_limit_alone = 21474 
WTRc_limit_alone = 0 
RTWc_limit_alone = 0 

Commands details: 
total_CMD = 189858 
n_nop = 164760 
Read = 24582 
Write = 0 
L2_Alloc = 0 
L2_WB = 0 
n_act = 306 
n_pre = 290 
n_ref = 0 
n_req = 24582 
total_req = 24582 

Dual Bus Interface Util: 
issued_total_row = 596 
issued_total_col = 24582 
Row_Bus_Util =  0.003139 
CoL_Bus_Util = 0.129476 
Either_Row_CoL_Bus_Util = 0.132194 
Issued_on_Two_Bus_Simul_Util = 0.000421 
issued_two_Eff = 0.003188 
queue_avg = 0.907958 


dram_util_bins: 0 0 0 0 0 0 0 0 0 0
dram_eff_bins: 0 0 0 0 0 0 0 0 0 0
mrqq: max=52 avg=0.907958
Memory Partition 9 (kid=2): 
Cache L2_bank_018 (kid=2):
MSHR contents (kid=2)

Cache L2_bank_019 (kid=2):
MSHR contents (kid=2)

In Dram Latency Queue (total = 0, matching kid = 0): 
DRAM[9]: 16 bks, busW=16 BL=2 CL=19, tRRD=5 tCCD=1, tRCD=17 tRAS=45 tRP=19 tRC=64
n_cmd=189858 n_nop=164768 n_act=314 n_pre=298 n_ref_event=0 n_req=24584 n_rd=24584 n_rd_L2_A=0 n_write=0 n_wr_bk=0 bw_util=0.1295
n_activity=77297 dram_eff=0.318
bk0: 1792a 185599i bk1: 1792a 185081i bk2: 1792a 185277i bk3: 1792a 184922i bk4: 1624a 186274i bk5: 1624a 186205i bk6: 1280a 187977i bk7: 1280a 187964i bk8: 1280a 187994i bk9: 1280a 187894i bk10: 1452a 187644i bk11: 1452a 187572i bk12: 1536a 187481i bk13: 1536a 187382i bk14: 1536a 187661i bk15: 1536a 187638i 

------------------------------------------------------------------------

Row_Buffer_Locality = 0.987227
Row_Buffer_Locality_read = 0.987227
Row_Buffer_Locality_write = 0.000000
Bank_Level_Parallism = 1.470466
Bank_Level_Parallism_Col = 1.383698
Bank_Level_Parallism_Ready = 1.061747
write_to_read_ratio_blp_rw_average = 0.000000
GrpLevelPara = 1.373375 

BW Util details:
bwutil = 0.129486 
total_CMD = 189858 
util_bw = 24584 
Wasted_Col = 21183 
Wasted_Row = 3025 
Idle = 141066 

BW Util Bottlenecks: 
RCDc_limit = 4304 
RCDWRc_limit = 0 
WTRc_limit = 0 
RTWc_limit = 0 
CCDLc_limit = 21602 
rwq = 0 
CCDLc_limit_alone = 21602 
WTRc_limit_alone = 0 
RTWc_limit_alone = 0 

Commands details: 
total_CMD = 189858 
n_nop = 164768 
Read = 24584 
Write = 0 
L2_Alloc = 0 
L2_WB = 0 
n_act = 314 
n_pre = 298 
n_ref = 0 
n_req = 24584 
total_req = 24584 

Dual Bus Interface Util: 
issued_total_row = 612 
issued_total_col = 24584 
Row_Bus_Util =  0.003223 
CoL_Bus_Util = 0.129486 
Either_Row_CoL_Bus_Util = 0.132151 
Issued_on_Two_Bus_Simul_Util = 0.000558 
issued_two_Eff = 0.004225 
queue_avg = 0.914994 


dram_util_bins: 0 0 0 0 0 0 0 0 0 0
dram_eff_bins: 0 0 0 0 0 0 0 0 0 0
mrqq: max=48 avg=0.914994
Memory Partition 10 (kid=2): 
Cache L2_bank_020 (kid=2):
MSHR contents (kid=2)

Cache L2_bank_021 (kid=2):
MSHR contents (kid=2)

In Dram Latency Queue (total = 0, matching kid = 0): 
DRAM[10]: 16 bks, busW=16 BL=2 CL=19, tRRD=5 tCCD=1, tRCD=17 tRAS=45 tRP=19 tRC=64
n_cmd=189858 n_nop=164776 n_act=316 n_pre=300 n_ref_event=0 n_req=24572 n_rd=24572 n_rd_L2_A=0 n_write=0 n_wr_bk=0 bw_util=0.1294
n_activity=77885 dram_eff=0.3155
bk0: 1792a 185181i bk1: 1792a 185642i bk2: 1792a 185287i bk3: 1792a 184936i bk4: 1620a 186249i bk5: 1616a 186018i bk6: 1280a 188002i bk7: 1280a 187984i bk8: 1280a 187981i bk9: 1280a 187912i bk10: 1452a 187656i bk11: 1452a 187657i bk12: 1536a 187500i bk13: 1536a 187470i bk14: 1536a 187663i bk15: 1536a 187617i 

------------------------------------------------------------------------

Row_Buffer_Locality = 0.987140
Row_Buffer_Locality_read = 0.987140
Row_Buffer_Locality_write = 0.000000
Bank_Level_Parallism = 1.470667
Bank_Level_Parallism_Col = 1.387567
Bank_Level_Parallism_Ready = 1.062917
write_to_read_ratio_blp_rw_average = 0.000000
GrpLevelPara = 1.376600 

BW Util details:
bwutil = 0.129423 
total_CMD = 189858 
util_bw = 24572 
Wasted_Col = 20888 
Wasted_Row = 3188 
Idle = 141210 

BW Util Bottlenecks: 
RCDc_limit = 4334 
RCDWRc_limit = 0 
WTRc_limit = 0 
RTWc_limit = 0 
CCDLc_limit = 21390 
rwq = 0 
CCDLc_limit_alone = 21390 
WTRc_limit_alone = 0 
RTWc_limit_alone = 0 

Commands details: 
total_CMD = 189858 
n_nop = 164776 
Read = 24572 
Write = 0 
L2_Alloc = 0 
L2_WB = 0 
n_act = 316 
n_pre = 300 
n_ref = 0 
n_req = 24572 
total_req = 24572 

Dual Bus Interface Util: 
issued_total_row = 616 
issued_total_col = 24572 
Row_Bus_Util =  0.003245 
CoL_Bus_Util = 0.129423 
Either_Row_CoL_Bus_Util = 0.132109 
Issued_on_Two_Bus_Simul_Util = 0.000558 
issued_two_Eff = 0.004226 
queue_avg = 0.897703 


dram_util_bins: 0 0 0 0 0 0 0 0 0 0
dram_eff_bins: 0 0 0 0 0 0 0 0 0 0
mrqq: max=51 avg=0.897702
Memory Partition 11 (kid=2): 
Cache L2_bank_022 (kid=2):
MSHR contents (kid=2)

Cache L2_bank_023 (kid=2):
MSHR contents (kid=2)

In Dram Latency Queue (total = 0, matching kid = 0): 
DRAM[11]: 16 bks, busW=16 BL=2 CL=19, tRRD=5 tCCD=1, tRCD=17 tRAS=45 tRP=19 tRC=64
n_cmd=189858 n_nop=164772 n_act=312 n_pre=296 n_ref_event=0 n_req=24568 n_rd=24568 n_rd_L2_A=0 n_write=0 n_wr_bk=0 bw_util=0.1294
n_activity=77648 dram_eff=0.3164
bk0: 1792a 185097i bk1: 1792a 185147i bk2: 1792a 185239i bk3: 1792a 185436i bk4: 1616a 186203i bk5: 1616a 186325i bk6: 1280a 188023i bk7: 1280a 188000i bk8: 1280a 187931i bk9: 1280a 187953i bk10: 1452a 187702i bk11: 1452a 187592i bk12: 1536a 187497i bk13: 1536a 187406i bk14: 1536a 187679i bk15: 1536a 187591i 

------------------------------------------------------------------------

Row_Buffer_Locality = 0.987301
Row_Buffer_Locality_read = 0.987301
Row_Buffer_Locality_write = 0.000000
Bank_Level_Parallism = 1.478130
Bank_Level_Parallism_Col = 1.391691
Bank_Level_Parallism_Ready = 1.059468
write_to_read_ratio_blp_rw_average = 0.000000
GrpLevelPara = 1.382628 

BW Util details:
bwutil = 0.129402 
total_CMD = 189858 
util_bw = 24568 
Wasted_Col = 20701 
Wasted_Row = 3086 
Idle = 141503 

BW Util Bottlenecks: 
RCDc_limit = 4322 
RCDWRc_limit = 0 
WTRc_limit = 0 
RTWc_limit = 0 
CCDLc_limit = 21277 
rwq = 0 
CCDLc_limit_alone = 21277 
WTRc_limit_alone = 0 
RTWc_limit_alone = 0 

Commands details: 
total_CMD = 189858 
n_nop = 164772 
Read = 24568 
Write = 0 
L2_Alloc = 0 
L2_WB = 0 
n_act = 312 
n_pre = 296 
n_ref = 0 
n_req = 24568 
total_req = 24568 

Dual Bus Interface Util: 
issued_total_row = 608 
issued_total_col = 24568 
Row_Bus_Util =  0.003202 
CoL_Bus_Util = 0.129402 
Either_Row_CoL_Bus_Util = 0.132130 
Issued_on_Two_Bus_Simul_Util = 0.000474 
issued_two_Eff = 0.003588 
queue_avg = 0.923306 


dram_util_bins: 0 0 0 0 0 0 0 0 0 0
dram_eff_bins: 0 0 0 0 0 0 0 0 0 0
mrqq: max=47 avg=0.923306
Memory Partition 12 (kid=2): 
Cache L2_bank_024 (kid=2):
MSHR contents (kid=2)

Cache L2_bank_025 (kid=2):
MSHR contents (kid=2)

In Dram Latency Queue (total = 0, matching kid = 0): 
DRAM[12]: 16 bks, busW=16 BL=2 CL=19, tRRD=5 tCCD=1, tRCD=17 tRAS=45 tRP=19 tRC=64
n_cmd=189858 n_nop=189858 n_act=0 n_pre=0 n_ref_event=0 n_req=0 n_rd=0 n_rd_L2_A=0 n_write=0 n_wr_bk=0 bw_util=0
n_activity=0 dram_eff=0
bk0: 0a 189858i bk1: 0a 189858i bk2: 0a 189858i bk3: 0a 189858i bk4: 0a 189858i bk5: 0a 189858i bk6: 0a 189858i bk7: 0a 189858i bk8: 0a 189858i bk9: 0a 189858i bk10: 0a 189858i bk11: 0a 189858i bk12: 0a 189858i bk13: 0a 189858i bk14: 0a 189858i bk15: 0a 189858i 

------------------------------------------------------------------------

Row_Buffer_Locality = 0.000000
Row_Buffer_Locality_read = 0.000000
Row_Buffer_Locality_write = 0.000000
Bank_Level_Parallism = 0.000000
Bank_Level_Parallism_Col = 0.000000
Bank_Level_Parallism_Ready = 0.000000
write_to_read_ratio_blp_rw_average = 0.000000
GrpLevelPara = 0.000000 

BW Util details:
bwutil = 0.000000 
total_CMD = 189858 
util_bw = 0 
Wasted_Col = 0 
Wasted_Row = 0 
Idle = 189858 

BW Util Bottlenecks: 
RCDc_limit = 0 
RCDWRc_limit = 0 
WTRc_limit = 0 
RTWc_limit = 0 
CCDLc_limit = 0 
rwq = 0 
CCDLc_limit_alone = 0 
WTRc_limit_alone = 0 
RTWc_limit_alone = 0 

Commands details: 
total_CMD = 189858 
n_nop = 189858 
Read = 0 
Write = 0 
L2_Alloc = 0 
L2_WB = 0 
n_act = 0 
n_pre = 0 
n_ref = 0 
n_req = 0 
total_req = 0 

Dual Bus Interface Util: 
issued_total_row = 0 
issued_total_col = 0 
Row_Bus_Util =  0.000000 
CoL_Bus_Util = 0.000000 
Either_Row_CoL_Bus_Util = 0.000000 
Issued_on_Two_Bus_Simul_Util = 0.000000 
issued_two_Eff = 0.000000 
queue_avg = 0.000000 


dram_util_bins: 0 0 0 0 0 0 0 0 0 0
dram_eff_bins: 0 0 0 0 0 0 0 0 0 0
mrqq: max=0 avg=0
Memory Partition 13 (kid=2): 
Cache L2_bank_026 (kid=2):
MSHR contents (kid=2)

Cache L2_bank_027 (kid=2):
MSHR contents (kid=2)

In Dram Latency Queue (total = 0, matching kid = 0): 
DRAM[13]: 16 bks, busW=16 BL=2 CL=19, tRRD=5 tCCD=1, tRCD=17 tRAS=45 tRP=19 tRC=64
n_cmd=189858 n_nop=189858 n_act=0 n_pre=0 n_ref_event=0 n_req=0 n_rd=0 n_rd_L2_A=0 n_write=0 n_wr_bk=0 bw_util=0
n_activity=0 dram_eff=0
bk0: 0a 189858i bk1: 0a 189858i bk2: 0a 189858i bk3: 0a 189858i bk4: 0a 189858i bk5: 0a 189858i bk6: 0a 189858i bk7: 0a 189858i bk8: 0a 189858i bk9: 0a 189858i bk10: 0a 189858i bk11: 0a 189858i bk12: 0a 189858i bk13: 0a 189858i bk14: 0a 189858i bk15: 0a 189858i 

------------------------------------------------------------------------

Row_Buffer_Locality = 0.000000
Row_Buffer_Locality_read = 0.000000
Row_Buffer_Locality_write = 0.000000
Bank_Level_Parallism = 0.000000
Bank_Level_Parallism_Col = 0.000000
Bank_Level_Parallism_Ready = 0.000000
write_to_read_ratio_blp_rw_average = 0.000000
GrpLevelPara = 0.000000 

BW Util details:
bwutil = 0.000000 
total_CMD = 189858 
util_bw = 0 
Wasted_Col = 0 
Wasted_Row = 0 
Idle = 189858 

BW Util Bottlenecks: 
RCDc_limit = 0 
RCDWRc_limit = 0 
WTRc_limit = 0 
RTWc_limit = 0 
CCDLc_limit = 0 
rwq = 0 
CCDLc_limit_alone = 0 
WTRc_limit_alone = 0 
RTWc_limit_alone = 0 

Commands details: 
total_CMD = 189858 
n_nop = 189858 
Read = 0 
Write = 0 
L2_Alloc = 0 
L2_WB = 0 
n_act = 0 
n_pre = 0 
n_ref = 0 
n_req = 0 
total_req = 0 

Dual Bus Interface Util: 
issued_total_row = 0 
issued_total_col = 0 
Row_Bus_Util =  0.000000 
CoL_Bus_Util = 0.000000 
Either_Row_CoL_Bus_Util = 0.000000 
Issued_on_Two_Bus_Simul_Util = 0.000000 
issued_two_Eff = 0.000000 
queue_avg = 0.000000 


dram_util_bins: 0 0 0 0 0 0 0 0 0 0
dram_eff_bins: 0 0 0 0 0 0 0 0 0 0
mrqq: max=0 avg=0
Memory Partition 14 (kid=2): 
Cache L2_bank_028 (kid=2):
MSHR contents (kid=2)

Cache L2_bank_029 (kid=2):
MSHR contents (kid=2)

In Dram Latency Queue (total = 0, matching kid = 0): 
DRAM[14]: 16 bks, busW=16 BL=2 CL=19, tRRD=5 tCCD=1, tRCD=17 tRAS=45 tRP=19 tRC=64
n_cmd=189858 n_nop=189858 n_act=0 n_pre=0 n_ref_event=0 n_req=0 n_rd=0 n_rd_L2_A=0 n_write=0 n_wr_bk=0 bw_util=0
n_activity=0 dram_eff=0
bk0: 0a 189858i bk1: 0a 189858i bk2: 0a 189858i bk3: 0a 189858i bk4: 0a 189858i bk5: 0a 189858i bk6: 0a 189858i bk7: 0a 189858i bk8: 0a 189858i bk9: 0a 189858i bk10: 0a 189858i bk11: 0a 189858i bk12: 0a 189858i bk13: 0a 189858i bk14: 0a 189858i bk15: 0a 189858i 

------------------------------------------------------------------------

Row_Buffer_Locality = 0.000000
Row_Buffer_Locality_read = 0.000000
Row_Buffer_Locality_write = 0.000000
Bank_Level_Parallism = 0.000000
Bank_Level_Parallism_Col = 0.000000
Bank_Level_Parallism_Ready = 0.000000
write_to_read_ratio_blp_rw_average = 0.000000
GrpLevelPara = 0.000000 

BW Util details:
bwutil = 0.000000 
total_CMD = 189858 
util_bw = 0 
Wasted_Col = 0 
Wasted_Row = 0 
Idle = 189858 

BW Util Bottlenecks: 
RCDc_limit = 0 
RCDWRc_limit = 0 
WTRc_limit = 0 
RTWc_limit = 0 
CCDLc_limit = 0 
rwq = 0 
CCDLc_limit_alone = 0 
WTRc_limit_alone = 0 
RTWc_limit_alone = 0 

Commands details: 
total_CMD = 189858 
n_nop = 189858 
Read = 0 
Write = 0 
L2_Alloc = 0 
L2_WB = 0 
n_act = 0 
n_pre = 0 
n_ref = 0 
n_req = 0 
total_req = 0 

Dual Bus Interface Util: 
issued_total_row = 0 
issued_total_col = 0 
Row_Bus_Util =  0.000000 
CoL_Bus_Util = 0.000000 
Either_Row_CoL_Bus_Util = 0.000000 
Issued_on_Two_Bus_Simul_Util = 0.000000 
issued_two_Eff = 0.000000 
queue_avg = 0.000000 


dram_util_bins: 0 0 0 0 0 0 0 0 0 0
dram_eff_bins: 0 0 0 0 0 0 0 0 0 0
mrqq: max=0 avg=0
Memory Partition 15 (kid=2): 
Cache L2_bank_030 (kid=2):
MSHR contents (kid=2)

Cache L2_bank_031 (kid=2):
MSHR contents (kid=2)

In Dram Latency Queue (total = 0, matching kid = 0): 
DRAM[15]: 16 bks, busW=16 BL=2 CL=19, tRRD=5 tCCD=1, tRCD=17 tRAS=45 tRP=19 tRC=64
n_cmd=189858 n_nop=189858 n_act=0 n_pre=0 n_ref_event=0 n_req=0 n_rd=0 n_rd_L2_A=0 n_write=0 n_wr_bk=0 bw_util=0
n_activity=0 dram_eff=0
bk0: 0a 189858i bk1: 0a 189858i bk2: 0a 189858i bk3: 0a 189858i bk4: 0a 189858i bk5: 0a 189858i bk6: 0a 189858i bk7: 0a 189858i bk8: 0a 189858i bk9: 0a 189858i bk10: 0a 189858i bk11: 0a 189858i bk12: 0a 189858i bk13: 0a 189858i bk14: 0a 189858i bk15: 0a 189858i 

------------------------------------------------------------------------

Row_Buffer_Locality = 0.000000
Row_Buffer_Locality_read = 0.000000
Row_Buffer_Locality_write = 0.000000
Bank_Level_Parallism = 0.000000
Bank_Level_Parallism_Col = 0.000000
Bank_Level_Parallism_Ready = 0.000000
write_to_read_ratio_blp_rw_average = 0.000000
GrpLevelPara = 0.000000 

BW Util details:
bwutil = 0.000000 
total_CMD = 189858 
util_bw = 0 
Wasted_Col = 0 
Wasted_Row = 0 
Idle = 189858 

BW Util Bottlenecks: 
RCDc_limit = 0 
RCDWRc_limit = 0 
WTRc_limit = 0 
RTWc_limit = 0 
CCDLc_limit = 0 
rwq = 0 
CCDLc_limit_alone = 0 
WTRc_limit_alone = 0 
RTWc_limit_alone = 0 

Commands details: 
total_CMD = 189858 
n_nop = 189858 
Read = 0 
Write = 0 
L2_Alloc = 0 
L2_WB = 0 
n_act = 0 
n_pre = 0 
n_ref = 0 
n_req = 0 
total_req = 0 

Dual Bus Interface Util: 
issued_total_row = 0 
issued_total_col = 0 
Row_Bus_Util =  0.000000 
CoL_Bus_Util = 0.000000 
Either_Row_CoL_Bus_Util = 0.000000 
Issued_on_Two_Bus_Simul_Util = 0.000000 
issued_two_Eff = 0.000000 
queue_avg = 0.000000 


dram_util_bins: 0 0 0 0 0 0 0 0 0 0
[...]
total_req = 0 

Dual Bus Interface Util: 
issued_total_row = 0 
issued_total_col = 0 
Row_Bus_Util =  0.000000 
CoL_Bus_Util = 0.000000 
Either_Row_CoL_Bus_Util = 0.000000 
Issued_on_Two_Bus_Simul_Util = 0.000000 
issued_two_Eff = 0.000000 
queue_avg = 0.000000 


dram_util_bins: 0 0 0 0 0 0 0 0 0 0
dram_eff_bins: 0 0 0 0 0 0 0 0 0 0
mrqq: max=0 avg=0
Memory Partition 19 (kid=2): 
Cache L2_bank_038 (kid=2):
MSHR contents (kid=2)

Cache L2_bank_039 (kid=2):
MSHR contents (kid=2)

In Dram Latency Queue (total = 0, matching kid = 0): 
DRAM[19]: 16 bks, busW=16 BL=2 CL=19, tRRD=5 tCCD=1, tRCD=17 tRAS=45 tRP=19 tRC=64
n_cmd=189858 n_nop=189858 n_act=0 n_pre=0 n_ref_event=0 n_req=0 n_rd=0 n_rd_L2_A=0 n_write=0 n_wr_bk=0 bw_util=0
n_activity=0 dram_eff=0
bk0: 0a 189858i bk1: 0a 189858i bk2: 0a 189858i bk3: 0a 189858i bk4: 0a 189858i bk5: 0a 189858i bk6: 0a 189858i bk7: 0a 189858i bk8: 0a 189858i bk9: 0a 189858i bk10: 0a 189858i bk11: 0a 189858i bk12: 0a 189858i bk13: 0a 189858i bk14: 0a 189858i bk15: 0a 189858i 

------------------------------------------------------------------------

Row_Buffer_Locality = 0.000000
Row_Buffer_Locality_read = 0.000000
Row_Buffer_Locality_write = 0.000000
Bank_Level_Parallism = 0.000000
Bank_Level_Parallism_Col = 0.000000
Bank_Level_Parallism_Ready = 0.000000
write_to_read_ratio_blp_rw_average = 0.000000
GrpLevelPara = 0.000000 

BW Util details:
bwutil = 0.000000 
total_CMD = 189858 
util_bw = 0 
Wasted_Col = 0 
Wasted_Row = 0 
Idle = 189858 

BW Util Bottlenecks: 
RCDc_limit = 0 
RCDWRc_limit = 0 
WTRc_limit = 0 
RTWc_limit = 0 
CCDLc_limit = 0 
rwq = 0 
CCDLc_limit_alone = 0 
WTRc_limit_alone = 0 
RTWc_limit_alone = 0 

Commands details: 
total_CMD = 189858 
n_nop = 189858 
Read = 0 
Write = 0 
L2_Alloc = 0 
L2_WB = 0 
n_act = 0 
n_pre = 0 
n_ref = 0 
n_req = 0 
total_req = 0 

Dual Bus Interface Util: 
issued_total_row = 0 
issued_total_col = 0 
Row_Bus_Util =  0.000000 
CoL_Bus_Util = 0.000000 
Either_Row_CoL_Bus_Util = 0.000000 
Issued_on_Two_Bus_Simul_Util = 0.000000 
issued_two_Eff = 0.000000 
queue_avg = 0.000000 


dram_util_bins: 0 0 0 0 0 0 0 0 0 0
dram_eff_bins: 0 0 0 0 0 0 0 0 0 0
mrqq: max=0 avg=0
Memory Partition 20 (kid=2): 
Cache L2_bank_040 (kid=2):
MSHR contents (kid=2)

Cache L2_bank_041 (kid=2):
MSHR contents (kid=2)

In Dram Latency Queue (total = 0, matching kid = 0): 
DRAM[20]: 16 bks, busW=16 BL=2 CL=19, tRRD=5 tCCD=1, tRCD=17 tRAS=45 tRP=19 tRC=64
n_cmd=189858 n_nop=189858 n_act=0 n_pre=0 n_ref_event=0 n_req=0 n_rd=0 n_rd_L2_A=0 n_write=0 n_wr_bk=0 bw_util=0
n_activity=0 dram_eff=0
bk0: 0a 189858i bk1: 0a 189858i bk2: 0a 189858i bk3: 0a 189858i bk4: 0a 189858i bk5: 0a 189858i bk6: 0a 189858i bk7: 0a 189858i bk8: 0a 189858i bk9: 0a 189858i bk10: 0a 189858i bk11: 0a 189858i bk12: 0a 189858i bk13: 0a 189858i bk14: 0a 189858i bk15: 0a 189858i 

------------------------------------------------------------------------

Row_Buffer_Locality = 0.000000
Row_Buffer_Locality_read = 0.000000
Row_Buffer_Locality_write = 0.000000
Bank_Level_Parallism = 0.000000
Bank_Level_Parallism_Col = 0.000000
Bank_Level_Parallism_Ready = 0.000000
write_to_read_ratio_blp_rw_average = 0.000000
GrpLevelPara = 0.000000 

BW Util details:
bwutil = 0.000000 
total_CMD = 189858 
util_bw = 0 
Wasted_Col = 0 
Wasted_Row = 0 
Idle = 189858 

BW Util Bottlenecks: 
RCDc_limit = 0 
RCDWRc_limit = 0 
WTRc_limit = 0 
RTWc_limit = 0 
CCDLc_limit = 0 
rwq = 0 
CCDLc_limit_alone = 0 
WTRc_limit_alone = 0 
RTWc_limit_alone = 0 

Commands details: 
total_CMD = 189858 
n_nop = 189858 
Read = 0 
Write = 0 
L2_Alloc = 0 
L2_WB = 0 
n_act = 0 
n_pre = 0 
n_ref = 0 
n_req = 0 
total_req = 0 

Dual Bus Interface Util: 
issued_total_row = 0 
issued_total_col = 0 
Row_Bus_Util =  0.000000 
CoL_Bus_Util = 0.000000 
Either_Row_CoL_Bus_Util = 0.000000 
Issued_on_Two_Bus_Simul_Util = 0.000000 
issued_two_Eff = 0.000000 
queue_avg = 0.000000 


dram_util_bins: 0 0 0 0 0 0 0 0 0 0
dram_eff_bins: 0 0 0 0 0 0 0 0 0 0
mrqq: max=0 avg=0
Memory Partition 21 (kid=2): 
Cache L2_bank_042 (kid=2):
MSHR contents (kid=2)

Cache L2_bank_043 (kid=2):
MSHR contents (kid=2)

In Dram Latency Queue (total = 0, matching kid = 0): 
DRAM[21]: 16 bks, busW=16 BL=2 CL=19, tRRD=5 tCCD=1, tRCD=17 tRAS=45 tRP=19 tRC=64
n_cmd=189858 n_nop=189858 n_act=0 n_pre=0 n_ref_event=0 n_req=0 n_rd=0 n_rd_L2_A=0 n_write=0 n_wr_bk=0 bw_util=0
n_activity=0 dram_eff=0
bk0: 0a 189858i bk1: 0a 189858i bk2: 0a 189858i bk3: 0a 189858i bk4: 0a 189858i bk5: 0a 189858i bk6: 0a 189858i bk7: 0a 189858i bk8: 0a 189858i bk9: 0a 189858i bk10: 0a 189858i bk11: 0a 189858i bk12: 0a 189858i bk13: 0a 189858i bk14: 0a 189858i bk15: 0a 189858i 

------------------------------------------------------------------------

Row_Buffer_Locality = 0.000000
Row_Buffer_Locality_read = 0.000000
Row_Buffer_Locality_write = 0.000000
Bank_Level_Parallism = 0.000000
Bank_Level_Parallism_Col = 0.000000
Bank_Level_Parallism_Ready = 0.000000
write_to_read_ratio_blp_rw_average = 0.000000
GrpLevelPara = 0.000000 

BW Util details:
bwutil = 0.000000 
total_CMD = 189858 
util_bw = 0 
Wasted_Col = 0 
Wasted_Row = 0 
Idle = 189858 

BW Util Bottlenecks: 
RCDc_limit = 0 
RCDWRc_limit = 0 
WTRc_limit = 0 
RTWc_limit = 0 
CCDLc_limit = 0 
rwq = 0 
CCDLc_limit_alone = 0 
WTRc_limit_alone = 0 
RTWc_limit_alone = 0 

Commands details: 
total_CMD = 189858 
n_nop = 189858 
Read = 0 
Write = 0 
L2_Alloc = 0 
L2_WB = 0 
n_act = 0 
n_pre = 0 
n_ref = 0 
n_req = 0 
total_req = 0 

Dual Bus Interface Util: 
issued_total_row = 0 
issued_total_col = 0 
Row_Bus_Util =  0.000000 
CoL_Bus_Util = 0.000000 
Either_Row_CoL_Bus_Util = 0.000000 
Issued_on_Two_Bus_Simul_Util = 0.000000 
issued_two_Eff = 0.000000 
queue_avg = 0.000000 


dram_util_bins: 0 0 0 0 0 0 0 0 0 0
dram_eff_bins: 0 0 0 0 0 0 0 0 0 0
mrqq: max=0 avg=0
Memory Partition 22 (kid=2): 
Cache L2_bank_044 (kid=2):
MSHR contents (kid=2)

Cache L2_bank_045 (kid=2):
MSHR contents (kid=2)

In Dram Latency Queue (total = 0, matching kid = 0): 
DRAM[22]: 16 bks, busW=16 BL=2 CL=19, tRRD=5 tCCD=1, tRCD=17 tRAS=45 tRP=19 tRC=64
n_cmd=189858 n_nop=189858 n_act=0 n_pre=0 n_ref_event=0 n_req=0 n_rd=0 n_rd_L2_A=0 n_write=0 n_wr_bk=0 bw_util=0
n_activity=0 dram_eff=0
bk0: 0a 189858i bk1: 0a 189858i bk2: 0a 189858i bk3: 0a 189858i bk4: 0a 189858i bk5: 0a 189858i bk6: 0a 189858i bk7: 0a 189858i bk8: 0a 189858i bk9: 0a 189858i bk10: 0a 189858i bk11: 0a 189858i bk12: 0a 189858i bk13: 0a 189858i bk14: 0a 189858i bk15: 0a 189858i 

------------------------------------------------------------------------

Row_Buffer_Locality = 0.000000
Row_Buffer_Locality_read = 0.000000
Row_Buffer_Locality_write = 0.000000
Bank_Level_Parallism = 0.000000
Bank_Level_Parallism_Col = 0.000000
Bank_Level_Parallism_Ready = 0.000000
write_to_read_ratio_blp_rw_average = 0.000000
GrpLevelPara = 0.000000 

BW Util details:
bwutil = 0.000000 
total_CMD = 189858 
util_bw = 0 
Wasted_Col = 0 
Wasted_Row = 0 
Idle = 189858 

BW Util Bottlenecks: 
RCDc_limit = 0 
RCDWRc_limit = 0 
WTRc_limit = 0 
RTWc_limit = 0 
CCDLc_limit = 0 
rwq = 0 
CCDLc_limit_alone = 0 
WTRc_limit_alone = 0 
RTWc_limit_alone = 0 

Commands details: 
total_CMD = 189858 
n_nop = 189858 
Read = 0 
Write = 0 
L2_Alloc = 0 
L2_WB = 0 
n_act = 0 
n_pre = 0 
n_ref = 0 
n_req = 0 
total_req = 0 

Dual Bus Interface Util: 
issued_total_row = 0 
issued_total_col = 0 
Row_Bus_Util =  0.000000 
CoL_Bus_Util = 0.000000 
Either_Row_CoL_Bus_Util = 0.000000 
Issued_on_Two_Bus_Simul_Util = 0.000000 
issued_two_Eff = 0.000000 
queue_avg = 0.000000 


dram_util_bins: 0 0 0 0 0 0 0 0 0 0
dram_eff_bins: 0 0 0 0 0 0 0 0 0 0
mrqq: max=0 avg=0
Memory Partition 23 (kid=2): 
Cache L2_bank_046 (kid=2):
MSHR contents (kid=2)

Cache L2_bank_047 (kid=2):
MSHR contents (kid=2)

In Dram Latency Queue (total = 0, matching kid = 0): 
DRAM[23]: 16 bks, busW=16 BL=2 CL=19, tRRD=5 tCCD=1, tRCD=17 tRAS=45 tRP=19 tRC=64
n_cmd=189858 n_nop=189858 n_act=0 n_pre=0 n_ref_event=0 n_req=0 n_rd=0 n_rd_L2_A=0 n_write=0 n_wr_bk=0 bw_util=0
n_activity=0 dram_eff=0
bk0: 0a 189858i bk1: 0a 189858i bk2: 0a 189858i bk3: 0a 189858i bk4: 0a 189858i bk5: 0a 189858i bk6: 0a 189858i bk7: 0a 189858i bk8: 0a 189858i bk9: 0a 189858i bk10: 0a 189858i bk11: 0a 189858i bk12: 0a 189858i bk13: 0a 189858i bk14: 0a 189858i bk15: 0a 189858i 

------------------------------------------------------------------------

Row_Buffer_Locality = 0.000000
Row_Buffer_Locality_read = 0.000000
Row_Buffer_Locality_write = 0.000000
Bank_Level_Parallism = 0.000000
Bank_Level_Parallism_Col = 0.000000
Bank_Level_Parallism_Ready = 0.000000
write_to_read_ratio_blp_rw_average = 0.000000
GrpLevelPara = 0.000000 

BW Util details:
bwutil = 0.000000 
total_CMD = 189858 
util_bw = 0 
Wasted_Col = 0 
Wasted_Row = 0 
Idle = 189858 

BW Util Bottlenecks: 
RCDc_limit = 0 
RCDWRc_limit = 0 
WTRc_limit = 0 
RTWc_limit = 0 
CCDLc_limit = 0 
rwq = 0 
CCDLc_limit_alone = 0 
WTRc_limit_alone = 0 
RTWc_limit_alone = 0 

Commands details: 
total_CMD = 189858 
n_nop = 189858 
Read = 0 
Write = 0 
L2_Alloc = 0 
L2_WB = 0 
n_act = 0 
n_pre = 0 
n_ref = 0 
n_req = 0 
total_req = 0 

Dual Bus Interface Util: 
issued_total_row = 0 
issued_total_col = 0 
Row_Bus_Util =  0.000000 
CoL_Bus_Util = 0.000000 
Either_Row_CoL_Bus_Util = 0.000000 
Issued_on_Two_Bus_Simul_Util = 0.000000 
issued_two_Eff = 0.000000 
queue_avg = 0.000000 


dram_util_bins: 0 0 0 0 0 0 0 0 0 0
dram_eff_bins: 0 0 0 0 0 0 0 0 0 0
mrqq: max=0 avg=0

========= L2 cache stats =========
L2_cache_bank[0]: Access = 0, Miss = 0, Miss_rate = -nan, Pending_hits = 0, Reservation_fails = 0
L2_cache_bank[1]: Access = 0, Miss = 0, Miss_rate = -nan, Pending_hits = 0, Reservation_fails = 0
L2_cache_bank[2]: Access = 0, Miss = 0, Miss_rate = -nan, Pending_hits = 0, Reservation_fails = 0
L2_cache_bank[3]: Access = 0, Miss = 0, Miss_rate = -nan, Pending_hits = 0, Reservation_fails = 0
L2_cache_bank[4]: Access = 0, Miss = 0, Miss_rate = -nan, Pending_hits = 0, Reservation_fails = 0
L2_cache_bank[5]: Access = 0, Miss = 0, Miss_rate = -nan, Pending_hits = 0, Reservation_fails = 0
L2_cache_bank[6]: Access = 0, Miss = 0, Miss_rate = -nan, Pending_hits = 0, Reservation_fails = 0
L2_cache_bank[7]: Access = 0, Miss = 0, Miss_rate = -nan, Pending_hits = 0, Reservation_fails = 0
L2_cache_bank[8]: Access = 0, Miss = 0, Miss_rate = -nan, Pending_hits = 0, Reservation_fails = 0
L2_cache_bank[9]: Access = 0, Miss = 0, Miss_rate = -nan, Pending_hits = 0, Reservation_fails = 0
L2_cache_bank[10]: Access = 0, Miss = 0, Miss_rate = -nan, Pending_hits = 0, Reservation_fails = 0
L2_cache_bank[11]: Access = 0, Miss = 0, Miss_rate = -nan, Pending_hits = 0, Reservation_fails = 0
L2_cache_bank[12]: Access = 29341, Miss = 12968, Miss_rate = 0.442, Pending_hits = 311, Reservation_fails = 0
L2_cache_bank[13]: Access = 29343, Miss = 12968, Miss_rate = 0.442, Pending_hits = 322, Reservation_fails = 0
L2_cache_bank[14]: Access = 29342, Miss = 12968, Miss_rate = 0.442, Pending_hits = 310, Reservation_fails = 0
L2_cache_bank[15]: Access = 29343, Miss = 12968, Miss_rate = 0.442, Pending_hits = 322, Reservation_fails = 0
L2_cache_bank[16]: Access = 29362, Miss = 12974, Miss_rate = 0.442, Pending_hits = 310, Reservation_fails = 0
L2_cache_bank[17]: Access = 29366, Miss = 12976, Miss_rate = 0.442, Pending_hits = 306, Reservation_fails = 0
L2_cache_bank[18]: Access = 29368, Miss = 12976, Miss_rate = 0.442, Pending_hits = 319, Reservation_fails = 0
L2_cache_bank[19]: Access = 29368, Miss = 12976, Miss_rate = 0.442, Pending_hits = 336, Reservation_fails = 0
L2_cache_bank[20]: Access = 29358, Miss = 12972, Miss_rate = 0.442, Pending_hits = 315, Reservation_fails = 0
L2_cache_bank[21]: Access = 29354, Miss = 12968, Miss_rate = 0.442, Pending_hits = 319, Reservation_fails = 0
L2_cache_bank[22]: Access = 29352, Miss = 12968, Miss_rate = 0.442, Pending_hits = 322, Reservation_fails = 0
L2_cache_bank[23]: Access = 29351, Miss = 12968, Miss_rate = 0.442, Pending_hits = 303, Reservation_fails = 0
L2_cache_bank[24]: Access = 0, Miss = 0, Miss_rate = -nan, Pending_hits = 0, Reservation_fails = 0
L2_cache_bank[25]: Access = 0, Miss = 0, Miss_rate = -nan, Pending_hits = 0, Reservation_fails = 0
L2_cache_bank[26]: Access = 0, Miss = 0, Miss_rate = -nan, Pending_hits = 0, Reservation_fails = 0
L2_cache_bank[27]: Access = 0, Miss = 0, Miss_rate = -nan, Pending_hits = 0, Reservation_fails = 0
L2_cache_bank[28]: Access = 0, Miss = 0, Miss_rate = -nan, Pending_hits = 0, Reservation_fails = 0
L2_cache_bank[29]: Access = 0, Miss = 0, Miss_rate = -nan, Pending_hits = 0, Reservation_fails = 0
L2_cache_bank[30]: Access = 0, Miss = 0, Miss_rate = -nan, Pending_hits = 0, Reservation_fails = 0
L2_cache_bank[31]: Access = 0, Miss = 0, Miss_rate = -nan, Pending_hits = 0, Reservation_fails = 0
L2_cache_bank[32]: Access = 0, Miss = 0, Miss_rate = -nan, Pending_hits = 0, Reservation_fails = 0
L2_cache_bank[33]: Access = 0, Miss = 0, Miss_rate = -nan, Pending_hits = 0, Reservation_fails = 0
L2_cache_bank[34]: Access = 0, Miss = 0, Miss_rate = -nan, Pending_hits = 0, Reservation_fails = 0
L2_cache_bank[35]: Access = 0, Miss = 0, Miss_rate = -nan, Pending_hits = 0, Reservation_fails = 0
L2_cache_bank[36]: Access = 0, Miss = 0, Miss_rate = -nan, Pending_hits = 0, Reservation_fails = 0
L2_cache_bank[37]: Access = 0, Miss = 0, Miss_rate = -nan, Pending_hits = 0, Reservation_fails = 0
L2_cache_bank[38]: Access = 0, Miss = 0, Miss_rate = -nan, Pending_hits = 0, Reservation_fails = 0
L2_cache_bank[39]: Access = 0, Miss = 0, Miss_rate = -nan, Pending_hits = 0, Reservation_fails = 0
L2_cache_bank[40]: Access = 0, Miss = 0, Miss_rate = -nan, Pending_hits = 0, Reservation_fails = 0
L2_cache_bank[41]: Access = 0, Miss = 0, Miss_rate = -nan, Pending_hits = 0, Reservation_fails = 0
L2_cache_bank[42]: Access = 0, Miss = 0, Miss_rate = -nan, Pending_hits = 0, Reservation_fails = 0
L2_cache_bank[43]: Access = 0, Miss = 0, Miss_rate = -nan, Pending_hits = 0, Reservation_fails = 0
L2_cache_bank[44]: Access = 0, Miss = 0, Miss_rate = -nan, Pending_hits = 0, Reservation_fails = 0
L2_cache_bank[45]: Access = 0, Miss = 0, Miss_rate = -nan, Pending_hits = 0, Reservation_fails = 0
L2_cache_bank[46]: Access = 0, Miss = 0, Miss_rate = -nan, Pending_hits = 0, Reservation_fails = 0
L2_cache_bank[47]: Access = 0, Miss = 0, Miss_rate = -nan, Pending_hits = 0, Reservation_fails = 0
L2_total_cache_accesses = 352248
L2_total_cache_misses = 155650
L2_total_cache_miss_rate = 0.4419
L2_total_cache_pending_hits = 3795
L2_total_cache_reservation_fails = 0
L2_total_cache_breakdown:
	L2_cache_stats_breakdown[GLOBAL_ACC_R][HIT] = 4387
	L2_cache_stats_breakdown[GLOBAL_ACC_R][HIT_RESERVED] = 3795
	L2_cache_stats_breakdown[GLOBAL_ACC_R][MISS] = 36866
	L2_cache_stats_breakdown[GLOBAL_ACC_R][RESERVATION_FAIL] = 0
	L2_cache_stats_breakdown[GLOBAL_ACC_R][SECTOR_MISS] = 110592
	L2_cache_stats_breakdown[GLOBAL_ACC_R][MSHR_HIT] = 3795
	L2_cache_stats_breakdown[LOCAL_ACC_R][HIT] = 0
	L2_cache_stats_breakdown[LOCAL_ACC_R][HIT_RESERVED] = 0
	L2_cache_stats_breakdown[LOCAL_ACC_R][MISS] = 0
	L2_cache_stats_breakdown[LOCAL_ACC_R][RESERVATION_FAIL] = 0
	L2_cache_stats_breakdown[LOCAL_ACC_R][SECTOR_MISS] = 0
	L2_cache_stats_breakdown[LOCAL_ACC_R][MSHR_HIT] = 0
	L2_cache_stats_breakdown[CONST_ACC_R][HIT] = 0
	L2_cache_stats_breakdown[CONST_ACC_R][HIT_RESERVED] = 0
	L2_cache_stats_breakdown[CONST_ACC_R][MISS] = 0
	L2_cache_stats_breakdown[CONST_ACC_R][RESERVATION_FAIL] = 0
	L2_cache_stats_breakdown[CONST_ACC_R][SECTOR_MISS] = 0
	L2_cache_stats_breakdown[CONST_ACC_R][MSHR_HIT] = 0
	L2_cache_stats_breakdown[TEXTURE_ACC_R][HIT] = 0
	L2_cache_stats_breakdown[TEXTURE_ACC_R][HIT_RESERVED] = 0
	L2_cache_stats_breakdown[TEXTURE_ACC_R][MISS] = 0
	L2_cache_stats_breakdown[TEXTURE_ACC_R][RESERVATION_FAIL] = 0
	L2_cache_stats_breakdown[TEXTURE_ACC_R][SECTOR_MISS] = 0
	L2_cache_stats_breakdown[TEXTURE_ACC_R][MSHR_HIT] = 0
	L2_cache_stats_breakdown[GLOBAL_ACC_W][HIT] = 188416
	L2_cache_stats_breakdown[GLOBAL_ACC_W][HIT_RESERVED] = 0
	L2_cache_stats_breakdown[GLOBAL_ACC_W][MISS] = 2048
	L2_cache_stats_breakdown[GLOBAL_ACC_W][RESERVATION_FAIL] = 0
	L2_cache_stats_breakdown[GLOBAL_ACC_W][SECTOR_MISS] = 6144
	L2_cache_stats_breakdown[GLOBAL_ACC_W][MSHR_HIT] = 0
	L2_cache_stats_breakdown[LOCAL_ACC_W][HIT] = 0
	L2_cache_stats_breakdown[LOCAL_ACC_W][HIT_RESERVED] = 0
	L2_cache_stats_breakdown[LOCAL_ACC_W][MISS] = 0
	L2_cache_stats_breakdown[LOCAL_ACC_W][RESERVATION_FAIL] = 0
	L2_cache_stats_breakdown[LOCAL_ACC_W][SECTOR_MISS] = 0
	L2_cache_stats_breakdown[LOCAL_ACC_W][MSHR_HIT] = 0
	L2_cache_stats_breakdown[L1_WRBK_ACC][HIT] = 0
	L2_cache_stats_breakdown[L1_WRBK_ACC][HIT_RESERVED] = 0
	L2_cache_stats_breakdown[L1_WRBK_ACC][MISS] = 0
	L2_cache_stats_breakdown[L1_WRBK_ACC][RESERVATION_FAIL] = 0
	L2_cache_stats_breakdown[L1_WRBK_ACC][SECTOR_MISS] = 0
	L2_cache_stats_breakdown[L1_WRBK_ACC][MSHR_HIT] = 0
	L2_cache_stats_breakdown[L2_WRBK_ACC][HIT] = 0
	L2_cache_stats_breakdown[L2_WRBK_ACC][HIT_RESERVED] = 0
	L2_cache_stats_breakdown[L2_WRBK_ACC][MISS] = 0
	L2_cache_stats_breakdown[L2_WRBK_ACC][RESERVATION_FAIL] = 0
	L2_cache_stats_breakdown[L2_WRBK_ACC][SECTOR_MISS] = 0
	L2_cache_stats_breakdown[L2_WRBK_ACC][MSHR_HIT] = 0
	L2_cache_stats_breakdown[INST_ACC_R][HIT] = 0
	L2_cache_stats_breakdown[INST_ACC_R][HIT_RESERVED] = 0
	L2_cache_stats_breakdown[INST_ACC_R][MISS] = 0
	L2_cache_stats_breakdown[INST_ACC_R][RESERVATION_FAIL] = 0
	L2_cache_stats_breakdown[INST_ACC_R][SECTOR_MISS] = 0
	L2_cache_stats_breakdown[INST_ACC_R][MSHR_HIT] = 0
	L2_cache_stats_breakdown[L1_WR_ALLOC_R][HIT] = 0
	L2_cache_stats_breakdown[L1_WR_ALLOC_R][HIT_RESERVED] = 0
	L2_cache_stats_breakdown[L1_WR_ALLOC_R][MISS] = 0
	L2_cache_stats_breakdown[L1_WR_ALLOC_R][RESERVATION_FAIL] = 0
	L2_cache_stats_breakdown[L1_WR_ALLOC_R][SECTOR_MISS] = 0
	L2_cache_stats_breakdown[L1_WR_ALLOC_R][MSHR_HIT] = 0
	L2_cache_stats_breakdown[L2_WR_ALLOC_R][HIT] = 0
	L2_cache_stats_breakdown[L2_WR_ALLOC_R][HIT_RESERVED] = 0
	L2_cache_stats_breakdown[L2_WR_ALLOC_R][MISS] = 0
	L2_cache_stats_breakdown[L2_WR_ALLOC_R][RESERVATION_FAIL] = 0
	L2_cache_stats_breakdown[L2_WR_ALLOC_R][SECTOR_MISS] = 0
	L2_cache_stats_breakdown[L2_WR_ALLOC_R][MSHR_HIT] = 0
	L2_cache_stats_breakdown[GLOBAL_ACC_R][TOTAL_ACCESS] = 155640
	L2_cache_stats_breakdown[GLOBAL_ACC_W][TOTAL_ACCESS] = 196608
L2_total_cache_reservation_fail_breakdown:
L2_cache_data_port_util = 0.036
L2_cache_fill_port_util = 0.028

icnt_total_pkts_mem_to_simt=352248
icnt_total_pkts_simt_to_mem=352248
LD_mem_lat_dist  0 0 0 0 0 0 0 0 0 0 0 0 0 0 0 0 0 0 0 0 0 0 0 0 0 0 0
ST_mem_lat_dist  0 0 0 0 0 0 0 0 0 0 0 0 0 0 0 0 0 0 0 0 0 0 0 0 0 0 0
----------------------------Interconnect-DETAILS------------------------------
Req_Network_injected_packets_num = 352248
Req_Network_cycles = 225016
Req_Network_injected_packets_per_cycle =       1.5654
Req_Network_conflicts_per_cycle =       0.3756
Req_Network_conflicts_per_cycle_util =       0.7758
Req_Bank_Level_Parallism =       3.2329
Req_Network_in_buffer_full_per_cycle =       0.0000
Req_Network_in_buffer_avg_util =       0.6723
Req_Network_out_buffer_full_per_cycle =       0.0000
Req_Network_out_buffer_avg_util =       0.0326

Reply_Network_injected_packets_num = 352248
Reply_Network_cycles = 225016
Reply_Network_injected_packets_per_cycle =       1.5654
Reply_Network_conflicts_per_cycle =       1.1842
Reply_Network_conflicts_per_cycle_util =       2.4331
Reply_Bank_Level_Parallism =       3.2165
Reply_Network_in_buffer_full_per_cycle =       0.0000
Reply_Network_in_buffer_avg_util =       0.1441
Reply_Network_out_buffer_full_per_cycle =       0.0000
Reply_Network_out_buffer_avg_util =       0.1118
----------------------------END-of-Interconnect-DETAILS-----------------------


gpgpu_simulation_time = 0 days, 0 hrs, 14 min, 0 sec (840 sec)
gpgpu_simulation_rate = 0 (inst/sec)
gpgpu_simulation_rate = 0 (cycle/sec)
gpgpu_silicon_slowdown = Nan
GPGPU-Sim: *** simulation thread exiting ***
GPGPU-Sim: *** exit detected ***
