[fw] job 14708374685734825723 header loaded for kernel: /spapad/accel-sim-clean/sim_run_11.1_new_idle_validation/backprop-rodinia-3.1/65536/A30_MIG_4g.24gb-Accelwattch_SASS_SIM/traces/kernel-1-ctx_0x56237acb3f90.traceg.xz (uid=1)
[fw] launching kernel (job 14708374685734825723) name: _Z22bpnn_layerforward_CUDAPfS_S_S_ii uid: 1 local_stream_id: 0 global_stream_id: 1
GPGPU-Sim uArch: Shader 0 bind to kernel 1 '_Z22bpnn_layerforward_CUDAPfS_S_S_ii'
GPGPU-Sim uArch: Shader 1 bind to kernel 1 '_Z22bpnn_layerforward_CUDAPfS_S_S_ii'
GPGPU-Sim uArch: Shader 2 bind to kernel 1 '_Z22bpnn_layerforward_CUDAPfS_S_S_ii'
GPGPU-Sim uArch: Shader 3 bind to kernel 1 '_Z22bpnn_layerforward_CUDAPfS_S_S_ii'
GPGPU-Sim uArch: Shader 4 bind to kernel 1 '_Z22bpnn_layerforward_CUDAPfS_S_S_ii'
GPGPU-Sim uArch: Shader 5 bind to kernel 1 '_Z22bpnn_layerforward_CUDAPfS_S_S_ii'
GPGPU-Sim uArch: Shader 6 bind to kernel 1 '_Z22bpnn_layerforward_CUDAPfS_S_S_ii'
GPGPU-Sim uArch: Shader 7 bind to kernel 1 '_Z22bpnn_layerforward_CUDAPfS_S_S_ii'
GPGPU-Sim uArch: Shader 8 bind to kernel 1 '_Z22bpnn_layerforward_CUDAPfS_S_S_ii'
GPGPU-Sim uArch: Shader 9 bind to kernel 1 '_Z22bpnn_layerforward_CUDAPfS_S_S_ii'
GPGPU-Sim uArch: Shader 10 bind to kernel 1 '_Z22bpnn_layerforward_CUDAPfS_S_S_ii'
GPGPU-Sim uArch: Shader 11 bind to kernel 1 '_Z22bpnn_layerforward_CUDAPfS_S_S_ii'
GPGPU-Sim uArch: Shader 12 bind to kernel 1 '_Z22bpnn_layerforward_CUDAPfS_S_S_ii'
GPGPU-Sim uArch: Shader 13 bind to kernel 1 '_Z22bpnn_layerforward_CUDAPfS_S_S_ii'
kernel_name = _Z22bpnn_layerforward_CUDAPfS_S_S_ii
kernel_launch_uid = 1
kernel_stream_id = 1
gpu_sim_cycle = 122636
gpu_sim_insn = 95092736
gpu_sim_insn calculated by classic = 97491122
gpu_ipc =     775.4064
gpu_tot_sim_cycle = 122636
gpu_tot_sim_insn = 95092736
gpu_tot_ipc =     775.4064
gpu_tot_issued_cta = 4096
gpu_occupancy = 98.7403% 
gpu_tot_occupancy = 98.7403% 
max_total_param_size = 0
gpu_stall_dramfull = 0
gpu_stall_icnt2sh    = 0
partiton_level_parallism =       2.9347
partiton_level_parallism_total  =       2.9347
partiton_level_parallism_util =       3.2749
partiton_level_parallism_util_total  =       3.2749
L2_BW  =     132.3573 GB/Sec
L2_BW_total  =     132.3573 GB/Sec
L2_BW  calculated_by_classic=     135.1360 GB/Sec
L2_BW_total  calculated_by_classic=     135.1360 GB/Sec
gpu_total_sim_rate=226197

========= Core cache stats =========
L1I_cache:
	L1I_cache_total_cache_accesses = 0
	L1I_cache_total_cache_misses = 0
	L1I_cache_total_cache_pending_hits = 0
	L1I_cache_total_cache_reservation_fails = 0
L1D_cache:
	L1D_cache_core[0]: Access = 28714, Miss = 11720, Miss_rate = 0.408, Pending_hits = 2817, Reservation_fails = 10987
	L1D_cache_core[1]: Access = 28714, Miss = 11718, Miss_rate = 0.408, Pending_hits = 2822, Reservation_fails = 11397
	L1D_cache_core[2]: Access = 28616, Miss = 11680, Miss_rate = 0.408, Pending_hits = 2700, Reservation_fails = 11201
	L1D_cache_core[3]: Access = 28714, Miss = 11720, Miss_rate = 0.408, Pending_hits = 2468, Reservation_fails = 11639
	L1D_cache_core[4]: Access = 28714, Miss = 11718, Miss_rate = 0.408, Pending_hits = 2749, Reservation_fails = 10124
	L1D_cache_core[5]: Access = 28616, Miss = 11680, Miss_rate = 0.408, Pending_hits = 2916, Reservation_fails = 10279
	L1D_cache_core[6]: Access = 28714, Miss = 11720, Miss_rate = 0.408, Pending_hits = 2927, Reservation_fails = 11034
	L1D_cache_core[7]: Access = 28616, Miss = 11680, Miss_rate = 0.408, Pending_hits = 2943, Reservation_fails = 10995
	L1D_cache_core[8]: Access = 28616, Miss = 11680, Miss_rate = 0.408, Pending_hits = 2670, Reservation_fails = 9913
	L1D_cache_core[9]: Access = 28616, Miss = 11680, Miss_rate = 0.408, Pending_hits = 2862, Reservation_fails = 11491
	L1D_cache_core[10]: Access = 28714, Miss = 11720, Miss_rate = 0.408, Pending_hits = 2584, Reservation_fails = 10447
	L1D_cache_core[11]: Access = 28714, Miss = 11720, Miss_rate = 0.408, Pending_hits = 2799, Reservation_fails = 11535
	L1D_cache_core[12]: Access = 28714, Miss = 11720, Miss_rate = 0.408, Pending_hits = 2427, Reservation_fails = 10929
	L1D_cache_core[13]: Access = 28616, Miss = 11680, Miss_rate = 0.408, Pending_hits = 2778, Reservation_fails = 11106
	L1D_cache_core[14]: Access = 0, Miss = 0, Miss_rate = -nan, Pending_hits = 0, Reservation_fails = 0
	L1D_cache_core[15]: Access = 0, Miss = 0, Miss_rate = -nan, Pending_hits = 0, Reservation_fails = 0
	L1D_cache_core[16]: Access = 0, Miss = 0, Miss_rate = -nan, Pending_hits = 0, Reservation_fails = 0
	L1D_cache_core[17]: Access = 0, Miss = 0, Miss_rate = -nan, Pending_hits = 0, Reservation_fails = 0
	L1D_cache_core[18]: Access = 0, Miss = 0, Miss_rate = -nan, Pending_hits = 0, Reservation_fails = 0
	L1D_cache_core[19]: Access = 0, Miss = 0, Miss_rate = -nan, Pending_hits = 0, Reservation_fails = 0
	L1D_cache_core[20]: Access = 0, Miss = 0, Miss_rate = -nan, Pending_hits = 0, Reservation_fails = 0
	L1D_cache_core[21]: Access = 0, Miss = 0, Miss_rate = -nan, Pending_hits = 0, Reservation_fails = 0
	L1D_cache_core[22]: Access = 0, Miss = 0, Miss_rate = -nan, Pending_hits = 0, Reservation_fails = 0
	L1D_cache_core[23]: Access = 0, Miss = 0, Miss_rate = -nan, Pending_hits = 0, Reservation_fails = 0
	L1D_cache_core[24]: Access = 0, Miss = 0, Miss_rate = -nan, Pending_hits = 0, Reservation_fails = 0
	L1D_cache_core[25]: Access = 0, Miss = 0, Miss_rate = -nan, Pending_hits = 0, Reservation_fails = 0
	L1D_cache_core[26]: Access = 0, Miss = 0, Miss_rate = -nan, Pending_hits = 0, Reservation_fails = 0
	L1D_cache_core[27]: Access = 0, Miss = 0, Miss_rate = -nan, Pending_hits = 0, Reservation_fails = 0
	L1D_cache_core[28]: Access = 0, Miss = 0, Miss_rate = -nan, Pending_hits = 0, Reservation_fails = 0
	L1D_cache_core[29]: Access = 0, Miss = 0, Miss_rate = -nan, Pending_hits = 0, Reservation_fails = 0
	L1D_cache_core[30]: Access = 0, Miss = 0, Miss_rate = -nan, Pending_hits = 0, Reservation_fails = 0
	L1D_cache_core[31]: Access = 0, Miss = 0, Miss_rate = -nan, Pending_hits = 0, Reservation_fails = 0
	L1D_cache_core[32]: Access = 0, Miss = 0, Miss_rate = -nan, Pending_hits = 0, Reservation_fails = 0
	L1D_cache_core[33]: Access = 0, Miss = 0, Miss_rate = -nan, Pending_hits = 0, Reservation_fails = 0
	L1D_cache_core[34]: Access = 0, Miss = 0, Miss_rate = -nan, Pending_hits = 0, Reservation_fails = 0
	L1D_cache_core[35]: Access = 0, Miss = 0, Miss_rate = -nan, Pending_hits = 0, Reservation_fails = 0
	L1D_cache_core[36]: Access = 0, Miss = 0, Miss_rate = -nan, Pending_hits = 0, Reservation_fails = 0
	L1D_cache_core[37]: Access = 0, Miss = 0, Miss_rate = -nan, Pending_hits = 0, Reservation_fails = 0
	L1D_cache_core[38]: Access = 0, Miss = 0, Miss_rate = -nan, Pending_hits = 0, Reservation_fails = 0
	L1D_cache_core[39]: Access = 0, Miss = 0, Miss_rate = -nan, Pending_hits = 0, Reservation_fails = 0
	L1D_cache_core[40]: Access = 0, Miss = 0, Miss_rate = -nan, Pending_hits = 0, Reservation_fails = 0
	L1D_cache_core[41]: Access = 0, Miss = 0, Miss_rate = -nan, Pending_hits = 0, Reservation_fails = 0
	L1D_cache_core[42]: Access = 0, Miss = 0, Miss_rate = -nan, Pending_hits = 0, Reservation_fails = 0
	L1D_cache_core[43]: Access = 0, Miss = 0, Miss_rate = -nan, Pending_hits = 0, Reservation_fails = 0
	L1D_cache_core[44]: Access = 0, Miss = 0, Miss_rate = -nan, Pending_hits = 0, Reservation_fails = 0
	L1D_cache_core[45]: Access = 0, Miss = 0, Miss_rate = -nan, Pending_hits = 0, Reservation_fails = 0
	L1D_cache_core[46]: Access = 0, Miss = 0, Miss_rate = -nan, Pending_hits = 0, Reservation_fails = 0
	L1D_cache_core[47]: Access = 0, Miss = 0, Miss_rate = -nan, Pending_hits = 0, Reservation_fails = 0
	L1D_cache_core[48]: Access = 0, Miss = 0, Miss_rate = -nan, Pending_hits = 0, Reservation_fails = 0
	L1D_cache_core[49]: Access = 0, Miss = 0, Miss_rate = -nan, Pending_hits = 0, Reservation_fails = 0
	L1D_cache_core[50]: Access = 0, Miss = 0, Miss_rate = -nan, Pending_hits = 0, Reservation_fails = 0
	L1D_cache_core[51]: Access = 0, Miss = 0, Miss_rate = -nan, Pending_hits = 0, Reservation_fails = 0
	L1D_cache_core[52]: Access = 0, Miss = 0, Miss_rate = -nan, Pending_hits = 0, Reservation_fails = 0
	L1D_cache_core[53]: Access = 0, Miss = 0, Miss_rate = -nan, Pending_hits = 0, Reservation_fails = 0
	L1D_cache_core[54]: Access = 0, Miss = 0, Miss_rate = -nan, Pending_hits = 0, Reservation_fails = 0
	L1D_cache_core[55]: Access = 0, Miss = 0, Miss_rate = -nan, Pending_hits = 0, Reservation_fails = 0
	L1D_total_cache_accesses = 401408
	L1D_total_cache_misses = 163836
	L1D_total_cache_miss_rate = 0.4082
	L1D_total_cache_pending_hits = 38462
	L1D_total_cache_reservation_fails = 153077
	L1D_cache_data_port_util = 0.000
	L1D_cache_fill_port_util = 0.000
L1C_cache:
	L1C_cache_total_cache_accesses = 0
	L1C_cache_total_cache_misses = 0
	L1C_cache_total_cache_pending_hits = 0
	L1C_cache_total_cache_reservation_fails = 0
L1T_cache:
	L1T_cache_total_cache_accesses = 0
	L1T_cache_total_cache_misses = 0
	L1T_cache_total_cache_pending_hits = 0
	L1T_cache_total_cache_reservation_fails = 0

Total_core_cache_stats:
	Total_core_cache_stats_breakdown[GLOBAL_ACC_R][HIT] = 10694
	Total_core_cache_stats_breakdown[GLOBAL_ACC_R][HIT_RESERVED] = 38462
	Total_core_cache_stats_breakdown[GLOBAL_ACC_R][MISS] = 45046
	Total_core_cache_stats_breakdown[GLOBAL_ACC_R][RESERVATION_FAIL] = 82036
	Total_core_cache_stats_breakdown[GLOBAL_ACC_R][SECTOR_MISS] = 110598
	Total_core_cache_stats_breakdown[GLOBAL_ACC_R][MSHR_HIT] = 38462
	Total_core_cache_stats_breakdown[LOCAL_ACC_R][HIT] = 0
	Total_core_cache_stats_breakdown[LOCAL_ACC_R][HIT_RESERVED] = 0
	Total_core_cache_stats_breakdown[LOCAL_ACC_R][MISS] = 0
	Total_core_cache_stats_breakdown[LOCAL_ACC_R][RESERVATION_FAIL] = 0
	Total_core_cache_stats_breakdown[LOCAL_ACC_R][SECTOR_MISS] = 0
	Total_core_cache_stats_breakdown[LOCAL_ACC_R][MSHR_HIT] = 0
	Total_core_cache_stats_breakdown[CONST_ACC_R][HIT] = 0
	Total_core_cache_stats_breakdown[CONST_ACC_R][HIT_RESERVED] = 0
	Total_core_cache_stats_breakdown[CONST_ACC_R][MISS] = 0
	Total_core_cache_stats_breakdown[CONST_ACC_R][RESERVATION_FAIL] = 0
	Total_core_cache_stats_breakdown[CONST_ACC_R][SECTOR_MISS] = 0
	Total_core_cache_stats_breakdown[CONST_ACC_R][MSHR_HIT] = 0
	Total_core_cache_stats_breakdown[TEXTURE_ACC_R][HIT] = 0
	Total_core_cache_stats_breakdown[TEXTURE_ACC_R][HIT_RESERVED] = 0
	Total_core_cache_stats_breakdown[TEXTURE_ACC_R][MISS] = 0
	Total_core_cache_stats_breakdown[TEXTURE_ACC_R][RESERVATION_FAIL] = 0
	Total_core_cache_stats_breakdown[TEXTURE_ACC_R][SECTOR_MISS] = 0
	Total_core_cache_stats_breakdown[TEXTURE_ACC_R][MSHR_HIT] = 0
	Total_core_cache_stats_breakdown[GLOBAL_ACC_W][HIT] = 188416
	Total_core_cache_stats_breakdown[GLOBAL_ACC_W][HIT_RESERVED] = 0
	Total_core_cache_stats_breakdown[GLOBAL_ACC_W][MISS] = 4096
	Total_core_cache_stats_breakdown[GLOBAL_ACC_W][RESERVATION_FAIL] = 71041
	Total_core_cache_stats_breakdown[GLOBAL_ACC_W][SECTOR_MISS] = 4096
	Total_core_cache_stats_breakdown[GLOBAL_ACC_W][MSHR_HIT] = 0
	Total_core_cache_stats_breakdown[LOCAL_ACC_W][HIT] = 0
	Total_core_cache_stats_breakdown[LOCAL_ACC_W][HIT_RESERVED] = 0
	Total_core_cache_stats_breakdown[LOCAL_ACC_W][MISS] = 0
	Total_core_cache_stats_breakdown[LOCAL_ACC_W][RESERVATION_FAIL] = 0
	Total_core_cache_stats_breakdown[LOCAL_ACC_W][SECTOR_MISS] = 0
	Total_core_cache_stats_breakdown[LOCAL_ACC_W][MSHR_HIT] = 0
	Total_core_cache_stats_breakdown[L1_WRBK_ACC][HIT] = 0
	Total_core_cache_stats_breakdown[L1_WRBK_ACC][HIT_RESERVED] = 0
	Total_core_cache_stats_breakdown[L1_WRBK_ACC][MISS] = 0
	Total_core_cache_stats_breakdown[L1_WRBK_ACC][RESERVATION_FAIL] = 0
	Total_core_cache_stats_breakdown[L1_WRBK_ACC][SECTOR_MISS] = 0
	Total_core_cache_stats_breakdown[L1_WRBK_ACC][MSHR_HIT] = 0
	Total_core_cache_stats_breakdown[L2_WRBK_ACC][HIT] = 0
	Total_core_cache_stats_breakdown[L2_WRBK_ACC][HIT_RESERVED] = 0
	Total_core_cache_stats_breakdown[L2_WRBK_ACC][MISS] = 0
	Total_core_cache_stats_breakdown[L2_WRBK_ACC][RESERVATION_FAIL] = 0
	Total_core_cache_stats_breakdown[L2_WRBK_ACC][SECTOR_MISS] = 0
	Total_core_cache_stats_breakdown[L2_WRBK_ACC][MSHR_HIT] = 0
	Total_core_cache_stats_breakdown[INST_ACC_R][HIT] = 0
	Total_core_cache_stats_breakdown[INST_ACC_R][HIT_RESERVED] = 0
	Total_core_cache_stats_breakdown[INST_ACC_R][MISS] = 0
	Total_core_cache_stats_breakdown[INST_ACC_R][RESERVATION_FAIL] = 0
	Total_core_cache_stats_breakdown[INST_ACC_R][SECTOR_MISS] = 0
	Total_core_cache_stats_breakdown[INST_ACC_R][MSHR_HIT] = 0
	Total_core_cache_stats_breakdown[L1_WR_ALLOC_R][HIT] = 0
	Total_core_cache_stats_breakdown[L1_WR_ALLOC_R][HIT_RESERVED] = 0
	Total_core_cache_stats_breakdown[L1_WR_ALLOC_R][MISS] = 0
	Total_core_cache_stats_breakdown[L1_WR_ALLOC_R][RESERVATION_FAIL] = 0
	Total_core_cache_stats_breakdown[L1_WR_ALLOC_R][SECTOR_MISS] = 0
	Total_core_cache_stats_breakdown[L1_WR_ALLOC_R][MSHR_HIT] = 0
	Total_core_cache_stats_breakdown[L2_WR_ALLOC_R][HIT] = 0
	Total_core_cache_stats_breakdown[L2_WR_ALLOC_R][HIT_RESERVED] = 0
	Total_core_cache_stats_breakdown[L2_WR_ALLOC_R][MISS] = 0
	Total_core_cache_stats_breakdown[L2_WR_ALLOC_R][RESERVATION_FAIL] = 0
	Total_core_cache_stats_breakdown[L2_WR_ALLOC_R][SECTOR_MISS] = 0
	Total_core_cache_stats_breakdown[L2_WR_ALLOC_R][MSHR_HIT] = 0
	Total_core_cache_stats_breakdown[GLOBAL_ACC_R][TOTAL_ACCESS] = 204800
	Total_core_cache_stats_breakdown[GLOBAL_ACC_W][TOTAL_ACCESS] = 196608

Total_core_cache_fail_stats:
	Total_core_cache_fail_stats_breakdown[GLOBAL_ACC_R][MISS_QUEUE_FULL] = 82036
	Total_core_cache_fail_stats_breakdown[GLOBAL_ACC_W][MISS_QUEUE_FULL] = 71041
ctas_completed 4096, Shader 0 warp_id issue ditsribution:
warp_id:
0, 1, 2, 3, 4, 5, 6, 7, 8, 9, 10, 11, 12, 13, 14, 15, 16, 17, 18, 19, 20, 21, 22, 23, 24, 25, 26, 27, 28, 29, 30, 31, 32, 33, 34, 35, 36, 37, 38, 39, 40, 41, 42, 43, 44, 45, 46, 47, 48, 49, 50, 51, 52, 53, 54, 55, 56, 57, 58, 59, 60, 61, 62, 63, 
distro:
4699, 4699, 4699, 4699, 4699, 4699, 4699, 4699, 4699, 4699, 4699, 4699, 4699, 4699, 4699, 4699, 4699, 4699, 4699, 4699, 4699, 4699, 4699, 4699, 4699, 4699, 4699, 4699, 4699, 4699, 4699, 4699, 4699, 4699, 4699, 4699, 4699, 4699, 4699, 4699, 4572, 4572, 4572, 4572, 4572, 4572, 4572, 4572, 4572, 4572, 4572, 4572, 4572, 4572, 4572, 4572, 4572, 4572, 4572, 4572, 4572, 4572, 4572, 4572, 
gpgpu_n_tot_thrd_icount = 133169152
gpgpu_n_tot_w_icount = 4161536
gpgpu_n_stall_shd_mem = 65536
gpgpu_n_mem_read_local = 0
gpgpu_n_mem_write_local = 0
gpgpu_n_mem_read_global = 155644
gpgpu_n_mem_write_global = 196608
gpgpu_n_mem_texture = 0
gpgpu_n_mem_const = 0
gpgpu_n_load_insn  = 1114112
gpgpu_n_store_insn = 1114112
gpgpu_n_shmem_insn = 8323072
gpgpu_n_sstarr_insn = 0
gpgpu_n_tex_insn = 0
gpgpu_n_const_mem_insn = 0
gpgpu_n_param_mem_insn = 0
gpgpu_n_shmem_bkconflict = 0
gpgpu_n_l1cache_bkconflict = 0
gpgpu_n_intrawarp_mshr_merge = 0
gpgpu_n_cmem_portconflict = 0
gpgpu_stall_shd_mem[c_mem][resource_stall] = 0
gpgpu_stall_shd_mem[s_mem][bk_conf] = 0
gpgpu_stall_shd_mem[gl_mem][resource_stall] = 0
gpgpu_stall_shd_mem[gl_mem][coal_stall] = 65536
gpgpu_stall_shd_mem[gl_mem][data_port_stall] = 0
gpu_reg_bank_conflict_stalls = 0
Warp Occupancy Distribution:
Stall:2805144	W0_Idle:14152	W0_Scoreboard:44616	W1:0	W2:262144	W3:0	W4:0	W5:0	W6:0	W7:0	W8:0	W9:0	W10:0	W11:0	W12:0	W13:0	W14:0	W15:0	W16:475136	W17:0	W18:0	W19:0	W20:0	W21:0	W22:0	W23:0	W24:0	W25:0	W26:0	W27:0	W28:0	W29:0	W30:32768	W31:0	W32:2686976
single_issue_nums: WS0:1040384	WS1:1040384	WS2:1040384	WS3:1040384	
dual_issue_nums: WS0:0	WS1:0	WS2:0	WS3:0	
traffic_breakdown_core_to_mem[GLOBAL_ACC_R] = 1245152 {8:155644,}
traffic_breakdown_core_to_mem[GLOBAL_ACC_W] = 7864320 {40:196608,}
traffic_breakdown_mem_to_core[GLOBAL_ACC_R] = 6225760 {40:155644,}
traffic_breakdown_mem_to_core[GLOBAL_ACC_W] = 1572864 {8:196608,}
maxmflatency = 884 
max_icnt2mem_latency = 212 
maxmrqlatency = 263 
max_icnt2sh_latency = 86 
averagemflatency = 342 
avg_icnt2mem_latency = 54 
avg_icnt2sh_latency = 6 
mrq_lat_table:54702 	36460 	23724 	14015 	5714 	6916 	5643 	280 	4 	0 	0 	0 	0 	0 	0 	0 	0 	0 	0 	0 	0 	0 	0 	0 	0 	0 	0 	0 	0 	0 	0 	0 	
dq_lat_table:0 	0 	0 	0 	0 	0 	0 	0 	0 	0 	0 	0 	0 	0 	0 	0 	0 	0 	0 	0 	0 	0 	0 	0 	0 	0 	0 	0 	0 	0 	0 	0 	
mf_lat_table:0 	0 	0 	0 	0 	0 	0 	111651 	231404 	9197 	0 	0 	0 	0 	0 	0 	0 	0 	0 	0 	0 	0 	0 	0 	0 	0 	0 	0 	0 	0 	0 	0 	
icnt2mem_lat_table:0 	0 	0 	0 	0 	280441 	71300 	511 	0 	0 	0 	0 	0 	0 	0 	0 	0 	0 	0 	0 	0 	0 	0 	0 	
icnt2sh_lat_table:0 	203676 	67914 	43647 	28198 	8655 	162 	0 	0 	0 	0 	0 	0 	0 	0 	0 	0 	0 	0 	0 	0 	0 	0 	0 	
mf_lat_pw_table:0 	0 	0 	0 	0 	0 	0 	1 	223 	1 	0 	0 	0 	0 	0 	0 	0 	0 	0 	0 	0 	0 	0 	0 	0 	0 	0 	0 	0 	0 	0 	0 	
maximum concurrent accesses to same row:
dram[0]:       256       256       256       256       256       256       256       256       256       256       256       256       256       256       256       256 
dram[1]:       256       256       256       256       256       256       256       256       256       256       256       256       256       256       256       256 
dram[2]:       256       256       256       256       256       256       256       256       256       256       256       256       256       256       256       256 
dram[3]:       256       256       256       256       256       256       256       256       256       256       256       256       256       256       256       256 
dram[4]:       256       256       256       256       256       256       256       256       256       256       256       256       256       256       256       256 
dram[5]:       256       256       256       256       256       256       256       256       256       256       256       256       256       256       256       256 
dram[6]:         0         0         0         0         0         0         0         0         0         0         0         0         0         0         0         0 
dram[7]:         0         0         0         0         0         0         0         0         0         0         0         0         0         0         0         0 
dram[8]:         0         0         0         0         0         0         0         0         0         0         0         0         0         0         0         0 
dram[9]:         0         0         0         0         0         0         0         0         0         0         0         0         0         0         0         0 
dram[10]:         0         0         0         0         0         0         0         0         0         0         0         0         0         0         0         0 
dram[11]:         0         0         0         0         0         0         0         0         0         0         0         0         0         0         0         0 
dram[12]:         0         0         0         0         0         0         0         0         0         0         0         0         0         0         0         0 
dram[13]:         0         0         0         0         0         0         0         0         0         0         0         0         0         0         0         0 
dram[14]:         0         0         0         0         0         0         0         0         0         0         0         0         0         0         0         0 
dram[15]:         0         0         0         0         0         0         0         0         0         0         0         0         0         0         0         0 
dram[16]:         0         0         0         0         0         0         0         0         0         0         0         0         0         0         0         0 
dram[17]:         0         0         0         0         0         0         0         0         0         0         0         0         0         0         0         0 
dram[18]:         0         0         0         0         0         0         0         0         0         0         0         0         0         0         0         0 
dram[19]:         0         0         0         0         0         0         0         0         0         0         0         0         0         0         0         0 
dram[20]:         0         0         0         0         0         0         0         0         0         0         0         0         0         0         0         0 
dram[21]:         0         0         0         0         0         0         0         0         0         0         0         0         0         0         0         0 
dram[22]:         0         0         0         0         0         0         0         0         0         0         0         0         0         0         0         0 
dram[23]:         0         0         0         0         0         0         0         0         0         0         0         0         0         0         0         0 
maximum service time to same row:
dram[0]:     19934     19955     20003     19895     20041     20049     20035     20029     19935     19939     19820     19797     20609     20607     19888     19844 
dram[1]:     19956     19954     19889     19873     19947     19940     20029     19988     19954     19955     19800     19808     20598     20622     19862     19875 
dram[2]:     19934     19957     19873     19887     19998     20110     19990     20005     19963     19946     19803     19816     20628     20610     19922     19959 
dram[3]:     19945     19936     19888     19893     20066     20047     19993     20002     19968     19956     19791     19835     20611     20620     19997     19981 
dram[4]:     19927     19958     19887     19886     20045     20036     19881     19878     19955     19985     19832     19834     20627     20611     19977     19954 
dram[5]:     19960     19943     19921     19967     20025     20051     20050     20057     19884     19886     19829     19819     20609     20606     19954     20007 
dram[6]:         0         0         0         0         0         0         0         0         0         0         0         0         0         0         0         0 
dram[7]:         0         0         0         0         0         0         0         0         0         0         0         0         0         0         0         0 
dram[8]:         0         0         0         0         0         0         0         0         0         0         0         0         0         0         0         0 
dram[9]:         0         0         0         0         0         0         0         0         0         0         0         0         0         0         0         0 
dram[10]:         0         0         0         0         0         0         0         0         0         0         0         0         0         0         0         0 
dram[11]:         0         0         0         0         0         0         0         0         0         0         0         0         0         0         0         0 
dram[12]:         0         0         0         0         0         0         0         0         0         0         0         0         0         0         0         0 
dram[13]:         0         0         0         0         0         0         0         0         0         0         0         0         0         0         0         0 
dram[14]:         0         0         0         0         0         0         0         0         0         0         0         0         0         0         0         0 
dram[15]:         0         0         0         0         0         0         0         0         0         0         0         0         0         0         0         0 
dram[16]:         0         0         0         0         0         0         0         0         0         0         0         0         0         0         0         0 
dram[17]:         0         0         0         0         0         0         0         0         0         0         0         0         0         0         0         0 
dram[18]:         0         0         0         0         0         0         0         0         0         0         0         0         0         0         0         0 
dram[19]:         0         0         0         0         0         0         0         0         0         0         0         0         0         0         0         0 
dram[20]:         0         0         0         0         0         0         0         0         0         0         0         0         0         0         0         0 
dram[21]:         0         0         0         0         0         0         0         0         0         0         0         0         0         0         0         0 
dram[22]:         0         0         0         0         0         0         0         0         0         0         0         0         0         0         0         0 
dram[23]:         0         0         0         0         0         0         0         0         0         0         0         0         0         0         0         0 
average row accesses per activate:
dram[0]: 36.571430 51.200001 36.571430 38.127659 45.111111 50.750000 256.000000 256.000000 256.000000 256.000000 241.333328 241.333328 256.000000 256.000000 256.000000 256.000000 
dram[1]: 38.127659 39.822224 35.137257 36.571430 50.750000 50.750000 256.000000 256.000000 256.000000 256.000000 241.333328 241.333328 256.000000 256.000000 256.000000 256.000000 
dram[2]: 38.127659 43.707317 33.811321 36.571430 54.133335 45.111111 256.000000 256.000000 256.000000 256.000000 241.666672 242.000000 256.000000 256.000000 256.000000 256.000000 
dram[3]: 35.137257 41.674419 38.127659 43.707317 42.736843 40.599998 256.000000 256.000000 256.000000 256.000000 242.000000 242.000000 256.000000 256.000000 256.000000 256.000000 
dram[4]: 36.571430 41.674419 32.581818 38.127659 42.631580 50.500000 256.000000 256.000000 256.000000 256.000000 242.000000 242.000000 256.000000 256.000000 256.000000 256.000000 
dram[5]: 45.948719 51.200001 36.571430 35.137257 47.529411 53.866665 256.000000 256.000000 256.000000 256.000000 242.000000 242.000000 256.000000 256.000000 256.000000 256.000000 
dram[6]:  0.000000  0.000000  0.000000  0.000000  0.000000  0.000000  0.000000  0.000000  0.000000  0.000000  0.000000  0.000000  0.000000  0.000000  0.000000  0.000000 
dram[7]:  0.000000  0.000000  0.000000  0.000000  0.000000  0.000000  0.000000  0.000000  0.000000  0.000000  0.000000  0.000000  0.000000  0.000000  0.000000  0.000000 
dram[8]:  0.000000  0.000000  0.000000  0.000000  0.000000  0.000000  0.000000  0.000000  0.000000  0.000000  0.000000  0.000000  0.000000  0.000000  0.000000  0.000000 
dram[9]:  0.000000  0.000000  0.000000  0.000000  0.000000  0.000000  0.000000  0.000000  0.000000  0.000000  0.000000  0.000000  0.000000  0.000000  0.000000  0.000000 
dram[10]:  0.000000  0.000000  0.000000  0.000000  0.000000  0.000000  0.000000  0.000000  0.000000  0.000000  0.000000  0.000000  0.000000  0.000000  0.000000  0.000000 
dram[11]:  0.000000  0.000000  0.000000  0.000000  0.000000  0.000000  0.000000  0.000000  0.000000  0.000000  0.000000  0.000000  0.000000  0.000000  0.000000  0.000000 
dram[12]:  0.000000  0.000000  0.000000  0.000000  0.000000  0.000000  0.000000  0.000000  0.000000  0.000000  0.000000  0.000000  0.000000  0.000000  0.000000  0.000000 
dram[13]:  0.000000  0.000000  0.000000  0.000000  0.000000  0.000000  0.000000  0.000000  0.000000  0.000000  0.000000  0.000000  0.000000  0.000000  0.000000  0.000000 
dram[14]:  0.000000  0.000000  0.000000  0.000000  0.000000  0.000000  0.000000  0.000000  0.000000  0.000000  0.000000  0.000000  0.000000  0.000000  0.000000  0.000000 
dram[15]:  0.000000  0.000000  0.000000  0.000000  0.000000  0.000000  0.000000  0.000000  0.000000  0.000000  0.000000  0.000000  0.000000  0.000000  0.000000  0.000000 
dram[16]:  0.000000  0.000000  0.000000  0.000000  0.000000  0.000000  0.000000  0.000000  0.000000  0.000000  0.000000  0.000000  0.000000  0.000000  0.000000  0.000000 
dram[17]:  0.000000  0.000000  0.000000  0.000000  0.000000  0.000000  0.000000  0.000000  0.000000  0.000000  0.000000  0.000000  0.000000  0.000000  0.000000  0.000000 
dram[18]:  0.000000  0.000000  0.000000  0.000000  0.000000  0.000000  0.000000  0.000000  0.000000  0.000000  0.000000  0.000000  0.000000  0.000000  0.000000  0.000000 
dram[19]:  0.000000  0.000000  0.000000  0.000000  0.000000  0.000000  0.000000  0.000000  0.000000  0.000000  0.000000  0.000000  0.000000  0.000000  0.000000  0.000000 
dram[20]:  0.000000  0.000000  0.000000  0.000000  0.000000  0.000000  0.000000  0.000000  0.000000  0.000000  0.000000  0.000000  0.000000  0.000000  0.000000  0.000000 
dram[21]:  0.000000  0.000000  0.000000  0.000000  0.000000  0.000000  0.000000  0.000000  0.000000  0.000000  0.000000  0.000000  0.000000  0.000000  0.000000  0.000000 
dram[22]:  0.000000  0.000000  0.000000  0.000000  0.000000  0.000000  0.000000  0.000000  0.000000  0.000000  0.000000  0.000000  0.000000  0.000000  0.000000  0.000000 
dram[23]:  0.000000  0.000000  0.000000  0.000000  0.000000  0.000000  0.000000  0.000000  0.000000  0.000000  0.000000  0.000000  0.000000  0.000000  0.000000  0.000000 
average row locality = 147458/1858 = 79.363831
number of total memory accesses made:
dram[0]:         0         0         0         0         0         0         0         0         0         0         0         0         0         0         0         0 
dram[1]:         0         0         0         0         0         0         0         0         0         0         0         0         0         0         0         0 
dram[2]:         0         0         0         0         0         0         0         0         0         0         0         0         0         0         0         0 
dram[3]:         0         0         0         0         0         0         0         0         0         0         0         0         0         0         0         0 
dram[4]:         0         0         0         0         0         0         0         0         0         0         0         0         0         0         0         0 
dram[5]:         0         0         0         0         0         0         0         0         0         0         0         0         0         0         0         0 
dram[6]:         0         0         0         0         0         0         0         0         0         0         0         0         0         0         0         0 
dram[7]:         0         0         0         0         0         0         0         0         0         0         0         0         0         0         0         0 
dram[8]:         0         0         0         0         0         0         0         0         0         0         0         0         0         0         0         0 
dram[9]:         0         0         0         0         0         0         0         0         0         0         0         0         0         0         0         0 
dram[10]:         0         0         0         0         0         0         0         0         0         0         0         0         0         0         0         0 
dram[11]:         0         0         0         0         0         0         0         0         0         0         0         0         0         0         0         0 
dram[12]:         0         0         0         0         0         0         0         0         0         0         0         0         0         0         0         0 
dram[13]:         0         0         0         0         0         0         0         0         0         0         0         0         0         0         0         0 
dram[14]:         0         0         0         0         0         0         0         0         0         0         0         0         0         0         0         0 
dram[15]:         0         0         0         0         0         0         0         0         0         0         0         0         0         0         0         0 
dram[16]:         0         0         0         0         0         0         0         0         0         0         0         0         0         0         0         0 
dram[17]:         0         0         0         0         0         0         0         0         0         0         0         0         0         0         0         0 
dram[18]:         0         0         0         0         0         0         0         0         0         0         0         0         0         0         0         0 
dram[19]:         0         0         0         0         0         0         0         0         0         0         0         0         0         0         0         0 
dram[20]:         0         0         0         0         0         0         0         0         0         0         0         0         0         0         0         0 
dram[21]:         0         0         0         0         0         0         0         0         0         0         0         0         0         0         0         0 
dram[22]:         0         0         0         0         0         0         0         0         0         0         0         0         0         0         0         0 
dram[23]:         0         0         0         0         0         0         0         0         0         0         0         0         0         0         0         0 
total accesses: 0
min_bank_accesses = 0!
min_chip_accesses = 0!
number of total read accesses:
dram[0]:      1792      1792      1792      1792      1624      1624      1280      1280      1280      1280      1448      1448      1536      1536      1536      1536 
dram[1]:      1792      1792      1792      1792      1624      1624      1280      1280      1280      1280      1448      1448      1536      1536      1536      1536 
dram[2]:      1792      1792      1792      1792      1624      1624      1280      1280      1280      1280      1450      1452      1536      1536      1536      1536 
dram[3]:      1792      1792      1792      1792      1624      1624      1280      1280      1280      1280      1452      1452      1536      1536      1536      1536 
dram[4]:      1792      1792      1792      1792      1620      1616      1280      1280      1280      1280      1452      1452      1536      1536      1536      1536 
dram[5]:      1792      1792      1792      1792      1616      1616      1280      1280      1280      1280      1452      1452      1536      1536      1536      1536 
dram[6]:         0         0         0         0         0         0         0         0         0         0         0         0         0         0         0         0 
dram[7]:         0         0         0         0         0         0         0         0         0         0         0         0         0         0         0         0 
dram[8]:         0         0         0         0         0         0         0         0         0         0         0         0         0         0         0         0 
dram[9]:         0         0         0         0         0         0         0         0         0         0         0         0         0         0         0         0 
dram[10]:         0         0         0         0         0         0         0         0         0         0         0         0         0         0         0         0 
dram[11]:         0         0         0         0         0         0         0         0         0         0         0         0         0         0         0         0 
dram[12]:         0         0         0         0         0         0         0         0         0         0         0         0         0         0         0         0 
dram[13]:         0         0         0         0         0         0         0         0         0         0         0         0         0         0         0         0 
dram[14]:         0         0         0         0         0         0         0         0         0         0         0         0         0         0         0         0 
dram[15]:         0         0         0         0         0         0         0         0         0         0         0         0         0         0         0         0 
dram[16]:         0         0         0         0         0         0         0         0         0         0         0         0         0         0         0         0 
dram[17]:         0         0         0         0         0         0         0         0         0         0         0         0         0         0         0         0 
dram[18]:         0         0         0         0         0         0         0         0         0         0         0         0         0         0         0         0 
dram[19]:         0         0         0         0         0         0         0         0         0         0         0         0         0         0         0         0 
dram[20]:         0         0         0         0         0         0         0         0         0         0         0         0         0         0         0         0 
dram[21]:         0         0         0         0         0         0         0         0         0         0         0         0         0         0         0         0 
dram[22]:         0         0         0         0         0         0         0         0         0         0         0         0         0         0         0         0 
dram[23]:         0         0         0         0         0         0         0         0         0         0         0         0         0         0         0         0 
total dram reads = 147458
min_bank_accesses = 0!
min_chip_accesses = 0!
number of total write accesses:
dram[0]:         0         0         0         0         0         0         0         0         0         0         0         0         0         0         0         0 
dram[1]:         0         0         0         0         0         0         0         0         0         0         0         0         0         0         0         0 
dram[2]:         0         0         0         0         0         0         0         0         0         0         0         0         0         0         0         0 
dram[3]:         0         0         0         0         0         0         0         0         0         0         0         0         0         0         0         0 
dram[4]:         0         0         0         0         0         0         0         0         0         0         0         0         0         0         0         0 
dram[5]:         0         0         0         0         0         0         0         0         0         0         0         0         0         0         0         0 
dram[6]:         0         0         0         0         0         0         0         0         0         0         0         0         0         0         0         0 
dram[7]:         0         0         0         0         0         0         0         0         0         0         0         0         0         0         0         0 
dram[8]:         0         0         0         0         0         0         0         0         0         0         0         0         0         0         0         0 
dram[9]:         0         0         0         0         0         0         0         0         0         0         0         0         0         0         0         0 
dram[10]:         0         0         0         0         0         0         0         0         0         0         0         0         0         0         0         0 
dram[11]:         0         0         0         0         0         0         0         0         0         0         0         0         0         0         0         0 
dram[12]:         0         0         0         0         0         0         0         0         0         0         0         0         0         0         0         0 
dram[13]:         0         0         0         0         0         0         0         0         0         0         0         0         0         0         0         0 
dram[14]:         0         0         0         0         0         0         0         0         0         0         0         0         0         0         0         0 
dram[15]:         0         0         0         0         0         0         0         0         0         0         0         0         0         0         0         0 
dram[16]:         0         0         0         0         0         0         0         0         0         0         0         0         0         0         0         0 
dram[17]:         0         0         0         0         0         0         0         0         0         0         0         0         0         0         0         0 
dram[18]:         0         0         0         0         0         0         0         0         0         0         0         0         0         0         0         0 
dram[19]:         0         0         0         0         0         0         0         0         0         0         0         0         0         0         0         0 
dram[20]:         0         0         0         0         0         0         0         0         0         0         0         0         0         0         0         0 
dram[21]:         0         0         0         0         0         0         0         0         0         0         0         0         0         0         0         0 
dram[22]:         0         0         0         0         0         0         0         0         0         0         0         0         0         0         0         0 
dram[23]:         0         0         0         0         0         0         0         0         0         0         0         0         0         0         0         0 
total dram writes = 0
min_bank_accesses = 0!
min_chip_accesses = 0!
average mf latency per bank:
dram[0]:        743       745       743       749       796       803       948       967       953       966       839       849       769       783       758       769
dram[1]:        751       752       751       750       804       800       959       962       959       959       845       842       773       778       765       768
dram[2]:        748       749       749       751       801       806       962       963       957       960       841       843       779       783       767       767
dram[3]:        752       751       750       748       805       809       964       959       961       960       846       842       776       783       765       766
dram[4]:        749       753       754       749       805       808       959       960       960       960       842       844       777       777       765       768
dram[5]:        749       748       753       752       806       808       962       962       962       962       845       848       775       780       768       768
dram[6]:     none      none      none      none      none      none      none      none      none      none      none      none      none      none      none      none  
dram[7]:     none      none      none      none      none      none      none      none      none      none      none      none      none      none      none      none  
dram[8]:     none      none      none      none      none      none      none      none      none      none      none      none      none      none      none      none  
dram[9]:     none      none      none      none      none      none      none      none      none      none      none      none      none      none      none      none  
dram[10]:     none      none      none      none      none      none      none      none      none      none      none      none      none      none      none      none  
dram[11]:     none      none      none      none      none      none      none      none      none      none      none      none      none      none      none      none  
dram[12]:     none      none      none      none      none      none      none      none      none      none      none      none      none      none      none      none  
dram[13]:     none      none      none      none      none      none      none      none      none      none      none      none      none      none      none      none  
dram[14]:     none      none      none      none      none      none      none      none      none      none      none      none      none      none      none      none  
dram[15]:     none      none      none      none      none      none      none      none      none      none      none      none      none      none      none      none  
dram[16]:     none      none      none      none      none      none      none      none      none      none      none      none      none      none      none      none  
dram[17]:     none      none      none      none      none      none      none      none      none      none      none      none      none      none      none      none  
dram[18]:     none      none      none      none      none      none      none      none      none      none      none      none      none      none      none      none  
dram[19]:     none      none      none      none      none      none      none      none      none      none      none      none      none      none      none      none  
dram[20]:     none      none      none      none      none      none      none      none      none      none      none      none      none      none      none      none  
dram[21]:     none      none      none      none      none      none      none      none      none      none      none      none      none      none      none      none  
dram[22]:     none      none      none      none      none      none      none      none      none      none      none      none      none      none      none      none  
dram[23]:     none      none      none      none      none      none      none      none      none      none      none      none      none      none      none      none  
maximum mf latency per bank:
dram[0]:        668       609       676       671       609       600       532       546       517       529       827       834       768       840       531       535
dram[1]:        653       730       631       615       643       644       553       539       517       511       808       807       753       837       534       533
dram[2]:        639       642       655       661       582       627       535       543       515       534       803       764       783       875       585       580
dram[3]:        725       648       633       632       600       625       550       554       536       528       787       786       801       884       563       545
dram[4]:        662       648       663       604       642       602       546       532       518       517       780       790       794       843       528       539
dram[5]:        690       699       616       691       629       587       536       519       524       519       844       823       765       807       547       533
dram[6]:          0         0         0         0         0         0         0         0         0         0         0         0         0         0         0         0
dram[7]:          0         0         0         0         0         0         0         0         0         0         0         0         0         0         0         0
dram[8]:          0         0         0         0         0         0         0         0         0         0         0         0         0         0         0         0
dram[9]:          0         0         0         0         0         0         0         0         0         0         0         0         0         0         0         0
dram[10]:          0         0         0         0         0         0         0         0         0         0         0         0         0         0         0         0
dram[11]:          0         0         0         0         0         0         0         0         0         0         0         0         0         0         0         0
dram[12]:          0         0         0         0         0         0         0         0         0         0         0         0         0         0         0         0
dram[13]:          0         0         0         0         0         0         0         0         0         0         0         0         0         0         0         0
dram[14]:          0         0         0         0         0         0         0         0         0         0         0         0         0         0         0         0
dram[15]:          0         0         0         0         0         0         0         0         0         0         0         0         0         0         0         0
dram[16]:          0         0         0         0         0         0         0         0         0         0         0         0         0         0         0         0
dram[17]:          0         0         0         0         0         0         0         0         0         0         0         0         0         0         0         0
dram[18]:          0         0         0         0         0         0         0         0         0         0         0         0         0         0         0         0
dram[19]:          0         0         0         0         0         0         0         0         0         0         0         0         0         0         0         0
dram[20]:          0         0         0         0         0         0         0         0         0         0         0         0         0         0         0         0
dram[21]:          0         0         0         0         0         0         0         0         0         0         0         0         0         0         0         0
dram[22]:          0         0         0         0         0         0         0         0         0         0         0         0         0         0         0         0
dram[23]:          0         0         0         0         0         0         0         0         0         0         0         0         0         0         0         0
Memory Partition 0 (kid=1): 
Cache L2_bank_000 (kid=1):
MSHR contents (kid=1)

Cache L2_bank_001 (kid=1):
MSHR contents (kid=1)

In Dram Latency Queue (total = 0, matching kid = 0): 
DRAM[0]: 16 bks, busW=16 BL=2 CL=19, tRRD=5 tCCD=1, tRCD=17 tRAS=45 tRP=19 tRC=64
n_cmd=103475 n_nop=78398 n_act=304 n_pre=288 n_ref_event=0 n_req=24576 n_rd=24576 n_rd_L2_A=0 n_write=0 n_wr_bk=0 bw_util=0.2375
n_activity=77819 dram_eff=0.3158
bk0: 1792a 98766i bk1: 1792a 99562i bk2: 1792a 98854i bk3: 1792a 99000i bk4: 1624a 99678i bk5: 1624a 99800i bk6: 1280a 101624i bk7: 1280a 101531i bk8: 1280a 101535i bk9: 1280a 101562i bk10: 1448a 101272i bk11: 1448a 101196i bk12: 1536a 101174i bk13: 1536a 101034i bk14: 1536a 101301i bk15: 1536a 101300i 

------------------------------------------------------------------------

Row_Buffer_Locality = 0.987630
Row_Buffer_Locality_read = 0.987630
Row_Buffer_Locality_write = 0.000000
Bank_Level_Parallism = 1.453788
Bank_Level_Parallism_Col = 1.379919
Bank_Level_Parallism_Ready = 1.059530
write_to_read_ratio_blp_rw_average = 0.000000
GrpLevelPara = 1.371274 

BW Util details:
bwutil = 0.237507 
total_CMD = 103475 
util_bw = 24576 
Wasted_Col = 21023 
Wasted_Row = 3230 
Idle = 54646 

BW Util Bottlenecks: 
RCDc_limit = 4205 
RCDWRc_limit = 0 
WTRc_limit = 0 
RTWc_limit = 0 
CCDLc_limit = 21447 
rwq = 0 
CCDLc_limit_alone = 21447 
WTRc_limit_alone = 0 
RTWc_limit_alone = 0 

Commands details: 
total_CMD = 103475 
n_nop = 78398 
Read = 24576 
Write = 0 
L2_Alloc = 0 
L2_WB = 0 
n_act = 304 
n_pre = 288 
n_ref = 0 
n_req = 24576 
total_req = 24576 

Dual Bus Interface Util: 
issued_total_row = 592 
issued_total_col = 24576 
Row_Bus_Util =  0.005721 
CoL_Bus_Util = 0.237507 
Either_Row_CoL_Bus_Util = 0.242348 
Issued_on_Two_Bus_Simul_Util = 0.000879 
issued_two_Eff = 0.003629 
queue_avg = 1.591370 


dram_util_bins: 0 0 0 0 0 0 0 0 0 0
dram_eff_bins: 0 0 0 0 0 0 0 0 0 0
mrqq: max=40 avg=1.59137
Memory Partition 1 (kid=1): 
Cache L2_bank_002 (kid=1):
MSHR contents (kid=1)

Cache L2_bank_003 (kid=1):
MSHR contents (kid=1)

In Dram Latency Queue (total = 0, matching kid = 0): 
DRAM[1]: 16 bks, busW=16 BL=2 CL=19, tRRD=5 tCCD=1, tRCD=17 tRAS=45 tRP=19 tRC=64
n_cmd=103475 n_nop=78400 n_act=312 n_pre=296 n_ref_event=0 n_req=24576 n_rd=24576 n_rd_L2_A=0 n_write=0 n_wr_bk=0 bw_util=0.2375
n_activity=77723 dram_eff=0.3162
bk0: 1792a 98973i bk1: 1792a 99041i bk2: 1792a 98861i bk3: 1792a 98848i bk4: 1624a 99764i bk5: 1624a 99795i bk6: 1280a 101573i bk7: 1280a 101498i bk8: 1280a 101600i bk9: 1280a 101643i bk10: 1448a 101240i bk11: 1448a 101263i bk12: 1536a 101172i bk13: 1536a 101103i bk14: 1536a 101318i bk15: 1536a 101262i 

------------------------------------------------------------------------

Row_Buffer_Locality = 0.987305
Row_Buffer_Locality_read = 0.987305
Row_Buffer_Locality_write = 0.000000
Bank_Level_Parallism = 1.473660
Bank_Level_Parallism_Col = 1.382561
Bank_Level_Parallism_Ready = 1.062337
write_to_read_ratio_blp_rw_average = 0.000000
GrpLevelPara = 1.370670 

BW Util details:
bwutil = 0.237507 
total_CMD = 103475 
util_bw = 24576 
Wasted_Col = 20969 
Wasted_Row = 2785 
Idle = 55145 

BW Util Bottlenecks: 
RCDc_limit = 4318 
RCDWRc_limit = 0 
WTRc_limit = 0 
RTWc_limit = 0 
CCDLc_limit = 21473 
rwq = 0 
CCDLc_limit_alone = 21473 
WTRc_limit_alone = 0 
RTWc_limit_alone = 0 

Commands details: 
total_CMD = 103475 
n_nop = 78400 
Read = 24576 
Write = 0 
L2_Alloc = 0 
L2_WB = 0 
n_act = 312 
n_pre = 296 
n_ref = 0 
n_req = 24576 
total_req = 24576 

Dual Bus Interface Util: 
issued_total_row = 608 
issued_total_col = 24576 
Row_Bus_Util =  0.005876 
CoL_Bus_Util = 0.237507 
Either_Row_CoL_Bus_Util = 0.242329 
Issued_on_Two_Bus_Simul_Util = 0.001053 
issued_two_Eff = 0.004347 
queue_avg = 1.712317 


dram_util_bins: 0 0 0 0 0 0 0 0 0 0
dram_eff_bins: 0 0 0 0 0 0 0 0 0 0
mrqq: max=43 avg=1.71232
Memory Partition 2 (kid=1): 
Cache L2_bank_004 (kid=1):
MSHR contents (kid=1)

Cache L2_bank_005 (kid=1):
MSHR contents (kid=1)

In Dram Latency Queue (total = 0, matching kid = 0): 
DRAM[2]: 16 bks, busW=16 BL=2 CL=19, tRRD=5 tCCD=1, tRCD=17 tRAS=45 tRP=19 tRC=64
n_cmd=103475 n_nop=78384 n_act=312 n_pre=296 n_ref_event=0 n_req=24582 n_rd=24582 n_rd_L2_A=0 n_write=0 n_wr_bk=0 bw_util=0.2376
n_activity=76802 dram_eff=0.3201
bk0: 1792a 98882i bk1: 1792a 99182i bk2: 1792a 98715i bk3: 1792a 98842i bk4: 1624a 99923i bk5: 1624a 99574i bk6: 1280a 101576i bk7: 1280a 101631i bk8: 1280a 101598i bk9: 1280a 101610i bk10: 1450a 101232i bk11: 1452a 101165i bk12: 1536a 101081i bk13: 1536a 100930i bk14: 1536a 101280i bk15: 1536a 101266i 

------------------------------------------------------------------------

Row_Buffer_Locality = 0.987308
Row_Buffer_Locality_read = 0.987308
Row_Buffer_Locality_write = 0.000000
Bank_Level_Parallism = 1.478735
Bank_Level_Parallism_Col = 1.397631
Bank_Level_Parallism_Ready = 1.059596
write_to_read_ratio_blp_rw_average = 0.000000
GrpLevelPara = 1.387535 

BW Util details:
bwutil = 0.237565 
total_CMD = 103475 
util_bw = 24582 
Wasted_Col = 20726 
Wasted_Row = 3176 
Idle = 54991 

BW Util Bottlenecks: 
RCDc_limit = 4371 
RCDWRc_limit = 0 
WTRc_limit = 0 
RTWc_limit = 0 
CCDLc_limit = 21383 
rwq = 0 
CCDLc_limit_alone = 21383 
WTRc_limit_alone = 0 
RTWc_limit_alone = 0 

Commands details: 
total_CMD = 103475 
n_nop = 78384 
Read = 24582 
Write = 0 
L2_Alloc = 0 
L2_WB = 0 
n_act = 312 
n_pre = 296 
n_ref = 0 
n_req = 24582 
total_req = 24582 

Dual Bus Interface Util: 
issued_total_row = 608 
issued_total_col = 24582 
Row_Bus_Util =  0.005876 
CoL_Bus_Util = 0.237565 
Either_Row_CoL_Bus_Util = 0.242484 
Issued_on_Two_Bus_Simul_Util = 0.000957 
issued_two_Eff = 0.003946 
queue_avg = 1.644687 


dram_util_bins: 0 0 0 0 0 0 0 0 0 0
dram_eff_bins: 0 0 0 0 0 0 0 0 0 0
mrqq: max=47 avg=1.64469
Memory Partition 3 (kid=1): 
Cache L2_bank_006 (kid=1):
MSHR contents (kid=1)

Cache L2_bank_007 (kid=1):
MSHR contents (kid=1)

In Dram Latency Queue (total = 0, matching kid = 0): 
DRAM[3]: 16 bks, busW=16 BL=2 CL=19, tRRD=5 tCCD=1, tRCD=17 tRAS=45 tRP=19 tRC=64
n_cmd=103475 n_nop=78364 n_act=316 n_pre=300 n_ref_event=0 n_req=24584 n_rd=24584 n_rd_L2_A=0 n_write=0 n_wr_bk=0 bw_util=0.2376
n_activity=77008 dram_eff=0.3192
bk0: 1792a 98536i bk1: 1792a 99035i bk2: 1792a 98979i bk3: 1792a 99208i bk4: 1624a 99522i bk5: 1624a 99377i bk6: 1280a 101621i bk7: 1280a 101535i bk8: 1280a 101632i bk9: 1280a 101618i bk10: 1452a 101257i bk11: 1452a 101163i bk12: 1536a 101064i bk13: 1536a 101078i bk14: 1536a 101250i bk15: 1536a 101271i 

------------------------------------------------------------------------

Row_Buffer_Locality = 0.987146
Row_Buffer_Locality_read = 0.987146
Row_Buffer_Locality_write = 0.000000
Bank_Level_Parallism = 1.476915
Bank_Level_Parallism_Col = 1.399863
Bank_Level_Parallism_Ready = 1.060161
write_to_read_ratio_blp_rw_average = 0.000000
GrpLevelPara = 1.391025 

BW Util details:
bwutil = 0.237584 
total_CMD = 103475 
util_bw = 24584 
Wasted_Col = 20717 
Wasted_Row = 3475 
Idle = 54699 

BW Util Bottlenecks: 
RCDc_limit = 4445 
RCDWRc_limit = 0 
WTRc_limit = 0 
RTWc_limit = 0 
CCDLc_limit = 21175 
rwq = 0 
CCDLc_limit_alone = 21175 
WTRc_limit_alone = 0 
RTWc_limit_alone = 0 

Commands details: 
total_CMD = 103475 
n_nop = 78364 
Read = 24584 
Write = 0 
L2_Alloc = 0 
L2_WB = 0 
n_act = 316 
n_pre = 300 
n_ref = 0 
n_req = 24584 
total_req = 24584 

Dual Bus Interface Util: 
issued_total_row = 616 
issued_total_col = 24584 
Row_Bus_Util =  0.005953 
CoL_Bus_Util = 0.237584 
Either_Row_CoL_Bus_Util = 0.242677 
Issued_on_Two_Bus_Simul_Util = 0.000860 
issued_two_Eff = 0.003544 
queue_avg = 1.738159 


dram_util_bins: 0 0 0 0 0 0 0 0 0 0
dram_eff_bins: 0 0 0 0 0 0 0 0 0 0
mrqq: max=50 avg=1.73816
Memory Partition 4 (kid=1): 
Cache L2_bank_008 (kid=1):
MSHR contents (kid=1)

Cache L2_bank_009 (kid=1):
MSHR contents (kid=1)

In Dram Latency Queue (total = 0, matching kid = 0): 
DRAM[4]: 16 bks, busW=16 BL=2 CL=19, tRRD=5 tCCD=1, tRCD=17 tRAS=45 tRP=19 tRC=64
n_cmd=103475 n_nop=78379 n_act=320 n_pre=304 n_ref_event=0 n_req=24572 n_rd=24572 n_rd_L2_A=0 n_write=0 n_wr_bk=0 bw_util=0.2375
n_activity=76997 dram_eff=0.3191
bk0: 1792a 98795i bk1: 1792a 99007i bk2: 1792a 98515i bk3: 1792a 98962i bk4: 1620a 99432i bk5: 1616a 99716i bk6: 1280a 101548i bk7: 1280a 101584i bk8: 1280a 101633i bk9: 1280a 101635i bk10: 1452a 101163i bk11: 1452a 101254i bk12: 1536a 101067i bk13: 1536a 100988i bk14: 1536a 101313i bk15: 1536a 101277i 

------------------------------------------------------------------------

Row_Buffer_Locality = 0.986977
Row_Buffer_Locality_read = 0.986977
Row_Buffer_Locality_write = 0.000000
Bank_Level_Parallism = 1.478089
Bank_Level_Parallism_Col = 1.391157
Bank_Level_Parallism_Ready = 1.064789
write_to_read_ratio_blp_rw_average = 0.000000
GrpLevelPara = 1.378589 

BW Util details:
bwutil = 0.237468 
total_CMD = 103475 
util_bw = 24572 
Wasted_Col = 21175 
Wasted_Row = 3156 
Idle = 54572 

BW Util Bottlenecks: 
RCDc_limit = 4400 
RCDWRc_limit = 0 
WTRc_limit = 0 
RTWc_limit = 0 
CCDLc_limit = 21595 
rwq = 0 
CCDLc_limit_alone = 21595 
WTRc_limit_alone = 0 
RTWc_limit_alone = 0 

Commands details: 
total_CMD = 103475 
n_nop = 78379 
Read = 24572 
Write = 0 
L2_Alloc = 0 
L2_WB = 0 
n_act = 320 
n_pre = 304 
n_ref = 0 
n_req = 24572 
total_req = 24572 

Dual Bus Interface Util: 
issued_total_row = 624 
issued_total_col = 24572 
Row_Bus_Util =  0.006030 
CoL_Bus_Util = 0.237468 
Either_Row_CoL_Bus_Util = 0.242532 
Issued_on_Two_Bus_Simul_Util = 0.000966 
issued_two_Eff = 0.003985 
queue_avg = 1.740797 


dram_util_bins: 0 0 0 0 0 0 0 0 0 0
dram_eff_bins: 0 0 0 0 0 0 0 0 0 0
mrqq: max=52 avg=1.7408
Memory Partition 5 (kid=1): 
Cache L2_bank_010 (kid=1):
MSHR contents (kid=1)

Cache L2_bank_011 (kid=1):
MSHR contents (kid=1)

In Dram Latency Queue (total = 0, matching kid = 0): 
DRAM[5]: 16 bks, busW=16 BL=2 CL=19, tRRD=5 tCCD=1, tRCD=17 tRAS=45 tRP=19 tRC=64
n_cmd=103475 n_nop=78434 n_act=294 n_pre=278 n_ref_event=0 n_req=24568 n_rd=24568 n_rd_L2_A=0 n_write=0 n_wr_bk=0 bw_util=0.2374
n_activity=77548 dram_eff=0.3168
bk0: 1792a 99381i bk1: 1792a 99559i bk2: 1792a 98829i bk3: 1792a 98667i bk4: 1616a 99726i bk5: 1616a 99899i bk6: 1280a 101589i bk7: 1280a 101578i bk8: 1280a 101641i bk9: 1280a 101606i bk10: 1452a 101236i bk11: 1452a 101263i bk12: 1536a 101186i bk13: 1536a 101082i bk14: 1536a 101254i bk15: 1536a 101292i 

------------------------------------------------------------------------

Row_Buffer_Locality = 0.988033
Row_Buffer_Locality_read = 0.988033
Row_Buffer_Locality_write = 0.000000
Bank_Level_Parallism = 1.452542
Bank_Level_Parallism_Col = 1.379923
Bank_Level_Parallism_Ready = 1.061340
write_to_read_ratio_blp_rw_average = 0.000000
GrpLevelPara = 1.368995 

BW Util details:
bwutil = 0.237429 
total_CMD = 103475 
util_bw = 24568 
Wasted_Col = 20857 
Wasted_Row = 3028 
Idle = 55022 

BW Util Bottlenecks: 
RCDc_limit = 4053 
RCDWRc_limit = 0 
WTRc_limit = 0 
RTWc_limit = 0 
CCDLc_limit = 21445 
rwq = 0 
CCDLc_limit_alone = 21445 
WTRc_limit_alone = 0 
RTWc_limit_alone = 0 

Commands details: 
total_CMD = 103475 
n_nop = 78434 
Read = 24568 
Write = 0 
L2_Alloc = 0 
L2_WB = 0 
n_act = 294 
n_pre = 278 
n_ref = 0 
n_req = 24568 
total_req = 24568 

Dual Bus Interface Util: 
issued_total_row = 572 
issued_total_col = 24568 
Row_Bus_Util =  0.005528 
CoL_Bus_Util = 0.237429 
Either_Row_CoL_Bus_Util = 0.242000 
Issued_on_Two_Bus_Simul_Util = 0.000957 
issued_two_Eff = 0.003954 
queue_avg = 1.634859 


dram_util_bins: 0 0 0 0 0 0 0 0 0 0
dram_eff_bins: 0 0 0 0 0 0 0 0 0 0
mrqq: max=58 avg=1.63486
Memory Partition 6 (kid=1): 
Cache L2_bank_012 (kid=1):
MSHR contents (kid=1)

Cache L2_bank_013 (kid=1):
MSHR contents (kid=1)

In Dram Latency Queue (total = 1, matching kid = 0): 
DRAM[6]: 16 bks, busW=16 BL=2 CL=19, tRRD=5 tCCD=1, tRCD=17 tRAS=45 tRP=19 tRC=64
n_cmd=103475 n_nop=102798 n_act=0 n_pre=0 n_ref_event=0 n_req=0 n_rd=0 n_rd_L2_A=0 n_write=0 n_wr_bk=0 bw_util=0
n_activity=1130 dram_eff=0
bk0: 0a 103441i bk1: 0a 103438i bk2: 0a 103475i bk3: 0a 103475i bk4: 0a 103475i bk5: 0a 103475i bk6: 0a 103475i bk7: 0a 103475i bk8: 0a 103475i bk9: 0a 103475i bk10: 0a 103159i bk11: 0a 103135i bk12: 0a 103164i bk13: 0a 103080i bk14: 0a 103475i bk15: 0a 103475i 

------------------------------------------------------------------------

Row_Buffer_Locality = 0.000000
Row_Buffer_Locality_read = 0.000000
Row_Buffer_Locality_write = 0.000000
Bank_Level_Parallism = 0.000000
Bank_Level_Parallism_Col = 0.000000
Bank_Level_Parallism_Ready = 0.000000
write_to_read_ratio_blp_rw_average = 0.000000
GrpLevelPara = 0.000000 

BW Util details:
bwutil = 0.000000 
total_CMD = 103475 
util_bw = 672 
Wasted_Col = 210 
Wasted_Row = 0 
Idle = 102593 

BW Util Bottlenecks: 
RCDc_limit = 0 
RCDWRc_limit = 0 
WTRc_limit = 0 
RTWc_limit = 0 
CCDLc_limit = 0 
rwq = 0 
CCDLc_limit_alone = 0 
WTRc_limit_alone = 0 
RTWc_limit_alone = 0 

Commands details: 
total_CMD = 103475 
n_nop = 102798 
Read = 0 
Write = 0 
L2_Alloc = 0 
L2_WB = 0 
n_act = 0 
n_pre = 0 
n_ref = 0 
n_req = 0 
total_req = 0 

Dual Bus Interface Util: 
issued_total_row = 6 
issued_total_col = 672 
Row_Bus_Util =  0.000058 
CoL_Bus_Util = 0.006494 
Either_Row_CoL_Bus_Util = 0.006543 
Issued_on_Two_Bus_Simul_Util = 0.000010 
issued_two_Eff = 0.001477 
queue_avg = 0.219899 


dram_util_bins: 0 0 0 0 0 0 0 0 0 0
dram_eff_bins: 0 0 0 0 0 0 0 0 0 0
mrqq: max=42 avg=0.219899
Memory Partition 7 (kid=1): 
Cache L2_bank_014 (kid=1):
MSHR contents (kid=1)

Cache L2_bank_015 (kid=1):
MSHR contents (kid=1)

In Dram Latency Queue (total = 0, matching kid = 0): 
DRAM[7]: 16 bks, busW=16 BL=2 CL=19, tRRD=5 tCCD=1, tRCD=17 tRAS=45 tRP=19 tRC=64
n_cmd=103475 n_nop=102799 n_act=0 n_pre=0 n_ref_event=0 n_req=0 n_rd=0 n_rd_L2_A=0 n_write=0 n_wr_bk=0 bw_util=0
n_activity=1188 dram_eff=0
bk0: 0a 103438i bk1: 0a 103435i bk2: 0a 103475i bk3: 0a 103475i bk4: 0a 103475i bk5: 0a 103475i bk6: 0a 103475i bk7: 0a 103475i bk8: 0a 103475i bk9: 0a 103475i bk10: 0a 103107i bk11: 0a 103139i bk12: 0a 103200i bk13: 0a 103144i bk14: 0a 103475i bk15: 0a 103475i 

------------------------------------------------------------------------

Row_Buffer_Locality = 0.000000
Row_Buffer_Locality_read = 0.000000
Row_Buffer_Locality_write = 0.000000
Bank_Level_Parallism = 0.000000
Bank_Level_Parallism_Col = 0.000000
Bank_Level_Parallism_Ready = 0.000000
write_to_read_ratio_blp_rw_average = 0.000000
GrpLevelPara = 0.000000 

BW Util details:
bwutil = 0.000000 
total_CMD = 103475 
util_bw = 672 
Wasted_Col = 216 
Wasted_Row = 0 
Idle = 102587 

BW Util Bottlenecks: 
RCDc_limit = 0 
RCDWRc_limit = 0 
WTRc_limit = 0 
RTWc_limit = 0 
CCDLc_limit = 0 
rwq = 0 
CCDLc_limit_alone = 0 
WTRc_limit_alone = 0 
RTWc_limit_alone = 0 

Commands details: 
total_CMD = 103475 
n_nop = 102799 
Read = 0 
Write = 0 
L2_Alloc = 0 
L2_WB = 0 
n_act = 0 
n_pre = 0 
n_ref = 0 
n_req = 0 
total_req = 0 

Dual Bus Interface Util: 
issued_total_row = 6 
issued_total_col = 672 
Row_Bus_Util =  0.000058 
CoL_Bus_Util = 0.006494 
Either_Row_CoL_Bus_Util = 0.006533 
Issued_on_Two_Bus_Simul_Util = 0.000019 
issued_two_Eff = 0.002959 
queue_avg = 0.243837 


dram_util_bins: 0 0 0 0 0 0 0 0 0 0
dram_eff_bins: 0 0 0 0 0 0 0 0 0 0
mrqq: max=56 avg=0.243837
Memory Partition 8 (kid=1): 
Cache L2_bank_016 (kid=1):
MSHR contents (kid=1)

Cache L2_bank_017 (kid=1):
MSHR contents (kid=1)

In Dram Latency Queue (total = 0, matching kid = 0): 
DRAM[8]: 16 bks, busW=16 BL=2 CL=19, tRRD=5 tCCD=1, tRCD=17 tRAS=45 tRP=19 tRC=64
n_cmd=103475 n_nop=102793 n_act=0 n_pre=0 n_ref_event=0 n_req=0 n_rd=0 n_rd_L2_A=0 n_write=0 n_wr_bk=0 bw_util=0
n_activity=1205 dram_eff=0
bk0: 0a 103438i bk1: 0a 103430i bk2: 0a 103475i bk3: 0a 103475i bk4: 0a 103475i bk5: 0a 103475i bk6: 0a 103475i bk7: 0a 103475i bk8: 0a 103475i bk9: 0a 103475i bk10: 0a 103102i bk11: 0a 103129i bk12: 0a 103205i bk13: 0a 103147i bk14: 0a 103475i bk15: 0a 103475i 

------------------------------------------------------------------------

Row_Buffer_Locality = 0.000000
Row_Buffer_Locality_read = 0.000000
Row_Buffer_Locality_write = 0.000000
Bank_Level_Parallism = 0.000000
Bank_Level_Parallism_Col = 0.000000
Bank_Level_Parallism_Ready = 0.000000
write_to_read_ratio_blp_rw_average = 0.000000
GrpLevelPara = 0.000000 

BW Util details:
bwutil = 0.000000 
total_CMD = 103475 
util_bw = 678 
Wasted_Col = 213 
Wasted_Row = 0 
Idle = 102584 

BW Util Bottlenecks: 
RCDc_limit = 0 
RCDWRc_limit = 0 
WTRc_limit = 0 
RTWc_limit = 0 
CCDLc_limit = 0 
rwq = 0 
CCDLc_limit_alone = 0 
WTRc_limit_alone = 0 
RTWc_limit_alone = 0 

Commands details: 
total_CMD = 103475 
n_nop = 102793 
Read = 0 
Write = 0 
L2_Alloc = 0 
L2_WB = 0 
n_act = 0 
n_pre = 0 
n_ref = 0 
n_req = 0 
total_req = 0 

Dual Bus Interface Util: 
issued_total_row = 6 
issued_total_col = 678 
Row_Bus_Util =  0.000058 
CoL_Bus_Util = 0.006552 
Either_Row_CoL_Bus_Util = 0.006591 
Issued_on_Two_Bus_Simul_Util = 0.000019 
issued_two_Eff = 0.002933 
queue_avg = 0.224653 


dram_util_bins: 0 0 0 0 0 0 0 0 0 0
dram_eff_bins: 0 0 0 0 0 0 0 0 0 0
mrqq: max=52 avg=0.224653
Memory Partition 9 (kid=1): 
Cache L2_bank_018 (kid=1):
MSHR contents (kid=1)

Cache L2_bank_019 (kid=1):
MSHR contents (kid=1)

In Dram Latency Queue (total = 0, matching kid = 0): 
DRAM[9]: 16 bks, busW=16 BL=2 CL=19, tRRD=5 tCCD=1, tRCD=17 tRAS=45 tRP=19 tRC=64
n_cmd=103475 n_nop=102791 n_act=0 n_pre=0 n_ref_event=0 n_req=0 n_rd=0 n_rd_L2_A=0 n_write=0 n_wr_bk=0 bw_util=0
n_activity=1166 dram_eff=0
bk0: 0a 103435i bk1: 0a 103435i bk2: 0a 103475i bk3: 0a 103475i bk4: 0a 103475i bk5: 0a 103475i bk6: 0a 103475i bk7: 0a 103475i bk8: 0a 103475i bk9: 0a 103475i bk10: 0a 103138i bk11: 0a 103119i bk12: 0a 103209i bk13: 0a 103119i bk14: 0a 103475i bk15: 0a 103475i 

------------------------------------------------------------------------

Row_Buffer_Locality = 0.000000
Row_Buffer_Locality_read = 0.000000
Row_Buffer_Locality_write = 0.000000
Bank_Level_Parallism = 0.000000
Bank_Level_Parallism_Col = 0.000000
Bank_Level_Parallism_Ready = 0.000000
write_to_read_ratio_blp_rw_average = 0.000000
GrpLevelPara = 0.000000 

BW Util details:
bwutil = 0.000000 
total_CMD = 103475 
util_bw = 680 
Wasted_Col = 223 
Wasted_Row = 0 
Idle = 102572 

BW Util Bottlenecks: 
RCDc_limit = 0 
RCDWRc_limit = 0 
WTRc_limit = 0 
RTWc_limit = 0 
CCDLc_limit = 0 
rwq = 0 
CCDLc_limit_alone = 0 
WTRc_limit_alone = 0 
RTWc_limit_alone = 0 

Commands details: 
total_CMD = 103475 
n_nop = 102791 
Read = 0 
Write = 0 
L2_Alloc = 0 
L2_WB = 0 
n_act = 0 
n_pre = 0 
n_ref = 0 
n_req = 0 
total_req = 0 

Dual Bus Interface Util: 
issued_total_row = 6 
issued_total_col = 680 
Row_Bus_Util =  0.000058 
CoL_Bus_Util = 0.006572 
Either_Row_CoL_Bus_Util = 0.006610 
Issued_on_Two_Bus_Simul_Util = 0.000019 
issued_two_Eff = 0.002924 
queue_avg = 0.224808 


dram_util_bins: 0 0 0 0 0 0 0 0 0 0
dram_eff_bins: 0 0 0 0 0 0 0 0 0 0
mrqq: max=48 avg=0.224808
Memory Partition 10 (kid=1): 
Cache L2_bank_020 (kid=1):
MSHR contents (kid=1)

Cache L2_bank_021 (kid=1):
MSHR contents (kid=1)

In Dram Latency Queue (total = 0, matching kid = 0): 
DRAM[10]: 16 bks, busW=16 BL=2 CL=19, tRRD=5 tCCD=1, tRCD=17 tRAS=45 tRP=19 tRC=64
n_cmd=103475 n_nop=102803 n_act=0 n_pre=0 n_ref_event=0 n_req=0 n_rd=0 n_rd_L2_A=0 n_write=0 n_wr_bk=0 bw_util=0
n_activity=1121 dram_eff=0
bk0: 0a 103444i bk1: 0a 103445i bk2: 0a 103475i bk3: 0a 103475i bk4: 0a 103475i bk5: 0a 103475i bk6: 0a 103475i bk7: 0a 103475i bk8: 0a 103475i bk9: 0a 103475i bk10: 0a 103131i bk11: 0a 103120i bk12: 0a 103196i bk13: 0a 103113i bk14: 0a 103475i bk15: 0a 103475i 

------------------------------------------------------------------------

Row_Buffer_Locality = 0.000000
Row_Buffer_Locality_read = 0.000000
Row_Buffer_Locality_write = 0.000000
Bank_Level_Parallism = 0.000000
Bank_Level_Parallism_Col = 0.000000
Bank_Level_Parallism_Ready = 0.000000
write_to_read_ratio_blp_rw_average = 0.000000
GrpLevelPara = 0.000000 

BW Util details:
bwutil = 0.000000 
total_CMD = 103475 
util_bw = 668 
Wasted_Col = 195 
Wasted_Row = 0 
Idle = 102612 

BW Util Bottlenecks: 
RCDc_limit = 0 
RCDWRc_limit = 0 
WTRc_limit = 0 
RTWc_limit = 0 
CCDLc_limit = 0 
rwq = 0 
CCDLc_limit_alone = 0 
WTRc_limit_alone = 0 
RTWc_limit_alone = 0 

Commands details: 
total_CMD = 103475 
n_nop = 102803 
Read = 0 
Write = 0 
L2_Alloc = 0 
L2_WB = 0 
n_act = 0 
n_pre = 0 
n_ref = 0 
n_req = 0 
total_req = 0 

Dual Bus Interface Util: 
issued_total_row = 6 
issued_total_col = 668 
Row_Bus_Util =  0.000058 
CoL_Bus_Util = 0.006456 
Either_Row_CoL_Bus_Util = 0.006494 
Issued_on_Two_Bus_Simul_Util = 0.000019 
issued_two_Eff = 0.002976 
queue_avg = 0.239575 


dram_util_bins: 0 0 0 0 0 0 0 0 0 0
dram_eff_bins: 0 0 0 0 0 0 0 0 0 0
mrqq: max=51 avg=0.239575
Memory Partition 11 (kid=1): 
Cache L2_bank_022 (kid=1):
MSHR contents (kid=1)

Cache L2_bank_023 (kid=1):
MSHR contents (kid=1)

In Dram Latency Queue (total = 0, matching kid = 0): 
DRAM[11]: 16 bks, busW=16 BL=2 CL=19, tRRD=5 tCCD=1, tRCD=17 tRAS=45 tRP=19 tRC=64
n_cmd=103475 n_nop=102806 n_act=0 n_pre=0 n_ref_event=0 n_req=0 n_rd=0 n_rd_L2_A=0 n_write=0 n_wr_bk=0 bw_util=0
n_activity=1137 dram_eff=0
bk0: 0a 103449i bk1: 0a 103444i bk2: 0a 103475i bk3: 0a 103475i bk4: 0a 103475i bk5: 0a 103475i bk6: 0a 103475i bk7: 0a 103475i bk8: 0a 103475i bk9: 0a 103475i bk10: 0a 103131i bk11: 0a 103123i bk12: 0a 103194i bk13: 0a 103108i bk14: 0a 103475i bk15: 0a 103475i 

------------------------------------------------------------------------

Row_Buffer_Locality = 0.000000
Row_Buffer_Locality_read = 0.000000
Row_Buffer_Locality_write = 0.000000
Bank_Level_Parallism = 0.000000
Bank_Level_Parallism_Col = 0.000000
Bank_Level_Parallism_Ready = 0.000000
write_to_read_ratio_blp_rw_average = 0.000000
GrpLevelPara = 0.000000 

BW Util details:
bwutil = 0.000000 
total_CMD = 103475 
util_bw = 664 
Wasted_Col = 206 
Wasted_Row = 0 
Idle = 102605 

BW Util Bottlenecks: 
RCDc_limit = 0 
RCDWRc_limit = 0 
WTRc_limit = 0 
RTWc_limit = 0 
CCDLc_limit = 0 
rwq = 0 
CCDLc_limit_alone = 0 
WTRc_limit_alone = 0 
RTWc_limit_alone = 0 

Commands details: 
total_CMD = 103475 
n_nop = 102806 
Read = 0 
Write = 0 
L2_Alloc = 0 
L2_WB = 0 
n_act = 0 
n_pre = 0 
n_ref = 0 
n_req = 0 
total_req = 0 

Dual Bus Interface Util: 
issued_total_row = 6 
issued_total_col = 664 
Row_Bus_Util =  0.000058 
CoL_Bus_Util = 0.006417 
Either_Row_CoL_Bus_Util = 0.006465 
Issued_on_Two_Bus_Simul_Util = 0.000010 
issued_two_Eff = 0.001495 
queue_avg = 0.228857 


dram_util_bins: 0 0 0 0 0 0 0 0 0 0
dram_eff_bins: 0 0 0 0 0 0 0 0 0 0
mrqq: max=47 avg=0.228857
Memory Partition 12 (kid=1): 
Cache L2_bank_024 (kid=1):
MSHR contents (kid=1)

Cache L2_bank_025 (kid=1):
MSHR contents (kid=1)

In Dram Latency Queue (total = 0, matching kid = 0): 
DRAM[12]: 16 bks, busW=16 BL=2 CL=19, tRRD=5 tCCD=1, tRCD=17 tRAS=45 tRP=19 tRC=64
n_cmd=103475 n_nop=103475 n_act=0 n_pre=0 n_ref_event=0 n_req=0 n_rd=0 n_rd_L2_A=0 n_write=0 n_wr_bk=0 bw_util=0
n_activity=0 dram_eff=0
bk0: 0a 103475i bk1: 0a 103475i bk2: 0a 103475i bk3: 0a 103475i bk4: 0a 103475i bk5: 0a 103475i bk6: 0a 103475i bk7: 0a 103475i bk8: 0a 103475i bk9: 0a 103475i bk10: 0a 103475i bk11: 0a 103475i bk12: 0a 103475i bk13: 0a 103475i bk14: 0a 103475i bk15: 0a 103475i 

------------------------------------------------------------------------

Row_Buffer_Locality = 0.000000
Row_Buffer_Locality_read = 0.000000
Row_Buffer_Locality_write = 0.000000
Bank_Level_Parallism = 0.000000
Bank_Level_Parallism_Col = 0.000000
Bank_Level_Parallism_Ready = 0.000000
write_to_read_ratio_blp_rw_average = 0.000000
GrpLevelPara = 0.000000 

BW Util details:
bwutil = 0.000000 
total_CMD = 103475 
util_bw = 0 
Wasted_Col = 0 
Wasted_Row = 0 
Idle = 103475 

BW Util Bottlenecks: 
RCDc_limit = 0 
RCDWRc_limit = 0 
WTRc_limit = 0 
RTWc_limit = 0 
CCDLc_limit = 0 
rwq = 0 
CCDLc_limit_alone = 0 
WTRc_limit_alone = 0 
RTWc_limit_alone = 0 

Commands details: 
total_CMD = 103475 
n_nop = 103475 
Read = 0 
Write = 0 
L2_Alloc = 0 
L2_WB = 0 
n_act = 0 
n_pre = 0 
n_ref = 0 
n_req = 0 
total_req = 0 

Dual Bus Interface Util: 
issued_total_row = 0 
issued_total_col = 0 
Row_Bus_Util =  0.000000 
CoL_Bus_Util = 0.000000 
Either_Row_CoL_Bus_Util = 0.000000 
Issued_on_Two_Bus_Simul_Util = 0.000000 
issued_two_Eff = 0.000000 
queue_avg = 0.000000 


dram_util_bins: 0 0 0 0 0 0 0 0 0 0
dram_eff_bins: 0 0 0 0 0 0 0 0 0 0
mrqq: max=0 avg=0
Memory Partition 13 (kid=1): 
Cache L2_bank_026 (kid=1):
MSHR contents (kid=1)

Cache L2_bank_027 (kid=1):
MSHR contents (kid=1)

In Dram Latency Queue (total = 0, matching kid = 0): 
DRAM[13]: 16 bks, busW=16 BL=2 CL=19, tRRD=5 tCCD=1, tRCD=17 tRAS=45 tRP=19 tRC=64
n_cmd=103475 n_nop=103475 n_act=0 n_pre=0 n_ref_event=0 n_req=0 n_rd=0 n_rd_L2_A=0 n_write=0 n_wr_bk=0 bw_util=0
n_activity=0 dram_eff=0
bk0: 0a 103475i bk1: 0a 103475i bk2: 0a 103475i bk3: 0a 103475i bk4: 0a 103475i bk5: 0a 103475i bk6: 0a 103475i bk7: 0a 103475i bk8: 0a 103475i bk9: 0a 103475i bk10: 0a 103475i bk11: 0a 103475i bk12: 0a 103475i bk13: 0a 103475i bk14: 0a 103475i bk15: 0a 103475i 

------------------------------------------------------------------------

Row_Buffer_Locality = 0.000000
Row_Buffer_Locality_read = 0.000000
Row_Buffer_Locality_write = 0.000000
Bank_Level_Parallism = 0.000000
Bank_Level_Parallism_Col = 0.000000
Bank_Level_Parallism_Ready = 0.000000
write_to_read_ratio_blp_rw_average = 0.000000
GrpLevelPara = 0.000000 

BW Util details:
bwutil = 0.000000 
total_CMD = 103475 
util_bw = 0 
Wasted_Col = 0 
Wasted_Row = 0 
Idle = 103475 

BW Util Bottlenecks: 
RCDc_limit = 0 
RCDWRc_limit = 0 
WTRc_limit = 0 
RTWc_limit = 0 
CCDLc_limit = 0 
rwq = 0 
CCDLc_limit_alone = 0 
WTRc_limit_alone = 0 
RTWc_limit_alone = 0 

Commands details: 
total_CMD = 103475 
n_nop = 103475 
Read = 0 
Write = 0 
L2_Alloc = 0 
L2_WB = 0 
n_act = 0 
n_pre = 0 
n_ref = 0 
n_req = 0 
total_req = 0 

Dual Bus Interface Util: 
issued_total_row = 0 
issued_total_col = 0 
Row_Bus_Util =  0.000000 
CoL_Bus_Util = 0.000000 
Either_Row_CoL_Bus_Util = 0.000000 
Issued_on_Two_Bus_Simul_Util = 0.000000 
issued_two_Eff = 0.000000 
queue_avg = 0.000000 


dram_util_bins: 0 0 0 0 0 0 0 0 0 0
dram_eff_bins: 0 0 0 0 0 0 0 0 0 0
mrqq: max=0 avg=0
Memory Partition 14 (kid=1): 
Cache L2_bank_028 (kid=1):
MSHR contents (kid=1)

Cache L2_bank_029 (kid=1):
MSHR contents (kid=1)

In Dram Latency Queue (total = 0, matching kid = 0): 
DRAM[14]: 16 bks, busW=16 BL=2 CL=19, tRRD=5 tCCD=1, tRCD=17 tRAS=45 tRP=19 tRC=64
n_cmd=103475 n_nop=103475 n_act=0 n_pre=0 n_ref_event=0 n_req=0 n_rd=0 n_rd_L2_A=0 n_write=0 n_wr_bk=0 bw_util=0
n_activity=0 dram_eff=0
bk0: 0a 103475i bk1: 0a 103475i bk2: 0a 103475i bk3: 0a 103475i bk4: 0a 103475i bk5: 0a 103475i bk6: 0a 103475i bk7: 0a 103475i bk8: 0a 103475i bk9: 0a 103475i bk10: 0a 103475i bk11: 0a 103475i bk12: 0a 103475i bk13: 0a 103475i bk14: 0a 103475i bk15: 0a 103475i 

------------------------------------------------------------------------

Row_Buffer_Locality = 0.000000
Row_Buffer_Locality_read = 0.000000
Row_Buffer_Locality_write = 0.000000
Bank_Level_Parallism = 0.000000
Bank_Level_Parallism_Col = 0.000000
Bank_Level_Parallism_Ready = 0.000000
write_to_read_ratio_blp_rw_average = 0.000000
GrpLevelPara = 0.000000 

BW Util details:
bwutil = 0.000000 
total_CMD = 103475 
util_bw = 0 
Wasted_Col = 0 
Wasted_Row = 0 
Idle = 103475 

BW Util Bottlenecks: 
RCDc_limit = 0 
RCDWRc_limit = 0 
WTRc_limit = 0 
RTWc_limit = 0 
CCDLc_limit = 0 
rwq = 0 
CCDLc_limit_alone = 0 
WTRc_limit_alone = 0 
RTWc_limit_alone = 0 

Commands details: 
total_CMD = 103475 
n_nop = 103475 
Read = 0 
Write = 0 
L2_Alloc = 0 
L2_WB = 0 
n_act = 0 
n_pre = 0 
n_ref = 0 
n_req = 0 
total_req = 0 

Dual Bus Interface Util: 
issued_total_row = 0 
issued_total_col = 0 
Row_Bus_Util =  0.000000 
CoL_Bus_Util = 0.000000 
Either_Row_CoL_Bus_Util = 0.000000 
Issued_on_Two_Bus_Simul_Util = 0.000000 
issued_two_Eff = 0.000000 
queue_avg = 0.000000 


dram_util_bins: 0 0 0 0 0 0 0 0 0 0
dram_eff_bins: 0 0 0 0 0 0 0 0 0 0
mrqq: max=0 avg=0
Memory Partition 15 (kid=1): 
Cache L2_bank_030 (kid=1):
MSHR contents (kid=1)

Cache L2_bank_031 (kid=1):
MSHR contents (kid=1)

In Dram Latency Queue (total = 0, matching kid = 0): 
DRAM[15]: 16 bks, busW=16 BL=2 CL=19, tRRD=5 tCCD=1, tRCD=17 tRAS=45 tRP=19 tRC=64
n_cmd=103475 n_nop=103475 n_act=0 n_pre=0 n_ref_event=0 n_req=0 n_rd=0 n_rd_L2_A=0 n_write=0 n_wr_bk=0 bw_util=0
n_activity=0 dram_eff=0
bk0: 0a 103475i bk1: 0a 103475i bk2: 0a 103475i bk3: 0a 103475i bk4: 0a 103475i bk5: 0a 103475i bk6: 0a 103475i bk7: 0a 103475i bk8: 0a 103475i bk9: 0a 103475i bk10: 0a 103475i bk11: 0a 103475i bk12: 0a 103475i bk13: 0a 103475i bk14: 0a 103475i bk15: 0a 103475i 

------------------------------------------------------------------------

Row_Buffer_Locality = 0.000000
Row_Buffer_Locality_read = 0.000000
Row_Buffer_Locality_write = 0.000000
Bank_Level_Parallism = 0.000000
Bank_Level_Parallism_Col = 0.000000
Bank_Level_Parallism_Ready = 0.000000
write_to_read_ratio_blp_rw_average = 0.000000
GrpLevelPara = 0.000000 

BW Util details:
bwutil = 0.000000 
total_CMD = 103475 
util_bw = 0 
Wasted_Col = 0 
Wasted_Row = 0 
Idle = 103475 

BW Util Bottlenecks: 
RCDc_limit = 0 
RCDWRc_limit = 0 
WTRc_limit = 0 
RTWc_limit = 0 
CCDLc_limit = 0 
rwq = 0 
CCDLc_limit_alone = 0 
WTRc_limit_alone = 0 
RTWc_limit_alone = 0 

Commands details: 
total_CMD = 103475 
n_nop = 103475 
Read = 0 
Write = 0 
L2_Alloc = 0 
L2_WB = 0 
n_act = 0 
n_pre = 0 
n_ref = 0 
n_req = 0 
total_req = 0 

Dual Bus Interface Util: 
issued_total_row = 0 
issued_total_col = 0 
Row_Bus_Util =  0.000000 
CoL_Bus_Util = 0.000000 
Either_Row_CoL_Bus_Util = 0.000000 
Issued_on_Two_Bus_Simul_Util = 0.000000 
issued_two_Eff = 0.000000 
queue_avg = 0.000000 


dram_util_bins: 0 0 0 0 0 0 0 0 0 0
dram_eff_bins: 0 0 0 0 0 0 0 0 0 0
mrqq: max=0 avg=0
Memory Partition 16 (kid=1): 
Cache L2_bank_032 (kid=1):
MSHR contents (kid=1)

Cache L2_bank_033 (kid=1):
[...]
total_req = 0 

Dual Bus Interface Util: 
issued_total_row = 0 
issued_total_col = 0 
Row_Bus_Util =  0.000000 
CoL_Bus_Util = 0.000000 
Either_Row_CoL_Bus_Util = 0.000000 
Issued_on_Two_Bus_Simul_Util = 0.000000 
issued_two_Eff = 0.000000 
queue_avg = 0.000000 


dram_util_bins: 0 0 0 0 0 0 0 0 0 0
dram_eff_bins: 0 0 0 0 0 0 0 0 0 0
mrqq: max=0 avg=0
Memory Partition 19 (kid=1): 
Cache L2_bank_038 (kid=1):
MSHR contents (kid=1)

Cache L2_bank_039 (kid=1):
MSHR contents (kid=1)

In Dram Latency Queue (total = 0, matching kid = 0): 
DRAM[19]: 16 bks, busW=16 BL=2 CL=19, tRRD=5 tCCD=1, tRCD=17 tRAS=45 tRP=19 tRC=64
n_cmd=103475 n_nop=103475 n_act=0 n_pre=0 n_ref_event=0 n_req=0 n_rd=0 n_rd_L2_A=0 n_write=0 n_wr_bk=0 bw_util=0
n_activity=0 dram_eff=0
bk0: 0a 103475i bk1: 0a 103475i bk2: 0a 103475i bk3: 0a 103475i bk4: 0a 103475i bk5: 0a 103475i bk6: 0a 103475i bk7: 0a 103475i bk8: 0a 103475i bk9: 0a 103475i bk10: 0a 103475i bk11: 0a 103475i bk12: 0a 103475i bk13: 0a 103475i bk14: 0a 103475i bk15: 0a 103475i 

------------------------------------------------------------------------

Row_Buffer_Locality = 0.000000
Row_Buffer_Locality_read = 0.000000
Row_Buffer_Locality_write = 0.000000
Bank_Level_Parallism = 0.000000
Bank_Level_Parallism_Col = 0.000000
Bank_Level_Parallism_Ready = 0.000000
write_to_read_ratio_blp_rw_average = 0.000000
GrpLevelPara = 0.000000 

BW Util details:
bwutil = 0.000000 
total_CMD = 103475 
util_bw = 0 
Wasted_Col = 0 
Wasted_Row = 0 
Idle = 103475 

BW Util Bottlenecks: 
RCDc_limit = 0 
RCDWRc_limit = 0 
WTRc_limit = 0 
RTWc_limit = 0 
CCDLc_limit = 0 
rwq = 0 
CCDLc_limit_alone = 0 
WTRc_limit_alone = 0 
RTWc_limit_alone = 0 

Commands details: 
total_CMD = 103475 
n_nop = 103475 
Read = 0 
Write = 0 
L2_Alloc = 0 
L2_WB = 0 
n_act = 0 
n_pre = 0 
n_ref = 0 
n_req = 0 
total_req = 0 

Dual Bus Interface Util: 
issued_total_row = 0 
issued_total_col = 0 
Row_Bus_Util =  0.000000 
CoL_Bus_Util = 0.000000 
Either_Row_CoL_Bus_Util = 0.000000 
Issued_on_Two_Bus_Simul_Util = 0.000000 
issued_two_Eff = 0.000000 
queue_avg = 0.000000 


dram_util_bins: 0 0 0 0 0 0 0 0 0 0
dram_eff_bins: 0 0 0 0 0 0 0 0 0 0
mrqq: max=0 avg=0
Memory Partition 20 (kid=1): 
Cache L2_bank_040 (kid=1):
MSHR contents (kid=1)

Cache L2_bank_041 (kid=1):
MSHR contents (kid=1)

In Dram Latency Queue (total = 0, matching kid = 0): 
DRAM[20]: 16 bks, busW=16 BL=2 CL=19, tRRD=5 tCCD=1, tRCD=17 tRAS=45 tRP=19 tRC=64
n_cmd=103475 n_nop=103475 n_act=0 n_pre=0 n_ref_event=0 n_req=0 n_rd=0 n_rd_L2_A=0 n_write=0 n_wr_bk=0 bw_util=0
n_activity=0 dram_eff=0
bk0: 0a 103475i bk1: 0a 103475i bk2: 0a 103475i bk3: 0a 103475i bk4: 0a 103475i bk5: 0a 103475i bk6: 0a 103475i bk7: 0a 103475i bk8: 0a 103475i bk9: 0a 103475i bk10: 0a 103475i bk11: 0a 103475i bk12: 0a 103475i bk13: 0a 103475i bk14: 0a 103475i bk15: 0a 103475i 

------------------------------------------------------------------------

Row_Buffer_Locality = 0.000000
Row_Buffer_Locality_read = 0.000000
Row_Buffer_Locality_write = 0.000000
Bank_Level_Parallism = 0.000000
Bank_Level_Parallism_Col = 0.000000
Bank_Level_Parallism_Ready = 0.000000
write_to_read_ratio_blp_rw_average = 0.000000
GrpLevelPara = 0.000000 

BW Util details:
bwutil = 0.000000 
total_CMD = 103475 
util_bw = 0 
Wasted_Col = 0 
Wasted_Row = 0 
Idle = 103475 

BW Util Bottlenecks: 
RCDc_limit = 0 
RCDWRc_limit = 0 
WTRc_limit = 0 
RTWc_limit = 0 
CCDLc_limit = 0 
rwq = 0 
CCDLc_limit_alone = 0 
WTRc_limit_alone = 0 
RTWc_limit_alone = 0 

Commands details: 
total_CMD = 103475 
n_nop = 103475 
Read = 0 
Write = 0 
L2_Alloc = 0 
L2_WB = 0 
n_act = 0 
n_pre = 0 
n_ref = 0 
n_req = 0 
total_req = 0 

Dual Bus Interface Util: 
issued_total_row = 0 
issued_total_col = 0 
Row_Bus_Util =  0.000000 
CoL_Bus_Util = 0.000000 
Either_Row_CoL_Bus_Util = 0.000000 
Issued_on_Two_Bus_Simul_Util = 0.000000 
issued_two_Eff = 0.000000 
queue_avg = 0.000000 


dram_util_bins: 0 0 0 0 0 0 0 0 0 0
dram_eff_bins: 0 0 0 0 0 0 0 0 0 0
mrqq: max=0 avg=0
Memory Partition 21 (kid=1): 
Cache L2_bank_042 (kid=1):
MSHR contents (kid=1)

Cache L2_bank_043 (kid=1):
MSHR contents (kid=1)

In Dram Latency Queue (total = 0, matching kid = 0): 
DRAM[21]: 16 bks, busW=16 BL=2 CL=19, tRRD=5 tCCD=1, tRCD=17 tRAS=45 tRP=19 tRC=64
n_cmd=103475 n_nop=103475 n_act=0 n_pre=0 n_ref_event=0 n_req=0 n_rd=0 n_rd_L2_A=0 n_write=0 n_wr_bk=0 bw_util=0
n_activity=0 dram_eff=0
bk0: 0a 103475i bk1: 0a 103475i bk2: 0a 103475i bk3: 0a 103475i bk4: 0a 103475i bk5: 0a 103475i bk6: 0a 103475i bk7: 0a 103475i bk8: 0a 103475i bk9: 0a 103475i bk10: 0a 103475i bk11: 0a 103475i bk12: 0a 103475i bk13: 0a 103475i bk14: 0a 103475i bk15: 0a 103475i 

------------------------------------------------------------------------

Row_Buffer_Locality = 0.000000
Row_Buffer_Locality_read = 0.000000
Row_Buffer_Locality_write = 0.000000
Bank_Level_Parallism = 0.000000
Bank_Level_Parallism_Col = 0.000000
Bank_Level_Parallism_Ready = 0.000000
write_to_read_ratio_blp_rw_average = 0.000000
GrpLevelPara = 0.000000 

BW Util details:
bwutil = 0.000000 
total_CMD = 103475 
util_bw = 0 
Wasted_Col = 0 
Wasted_Row = 0 
Idle = 103475 

BW Util Bottlenecks: 
RCDc_limit = 0 
RCDWRc_limit = 0 
WTRc_limit = 0 
RTWc_limit = 0 
CCDLc_limit = 0 
rwq = 0 
CCDLc_limit_alone = 0 
WTRc_limit_alone = 0 
RTWc_limit_alone = 0 

Commands details: 
total_CMD = 103475 
n_nop = 103475 
Read = 0 
Write = 0 
L2_Alloc = 0 
L2_WB = 0 
n_act = 0 
n_pre = 0 
n_ref = 0 
n_req = 0 
total_req = 0 

Dual Bus Interface Util: 
issued_total_row = 0 
issued_total_col = 0 
Row_Bus_Util =  0.000000 
CoL_Bus_Util = 0.000000 
Either_Row_CoL_Bus_Util = 0.000000 
Issued_on_Two_Bus_Simul_Util = 0.000000 
issued_two_Eff = 0.000000 
queue_avg = 0.000000 


dram_util_bins: 0 0 0 0 0 0 0 0 0 0
dram_eff_bins: 0 0 0 0 0 0 0 0 0 0
mrqq: max=0 avg=0
Memory Partition 22 (kid=1): 
Cache L2_bank_044 (kid=1):
MSHR contents (kid=1)

Cache L2_bank_045 (kid=1):
MSHR contents (kid=1)

In Dram Latency Queue (total = 0, matching kid = 0): 
DRAM[22]: 16 bks, busW=16 BL=2 CL=19, tRRD=5 tCCD=1, tRCD=17 tRAS=45 tRP=19 tRC=64
n_cmd=103475 n_nop=103475 n_act=0 n_pre=0 n_ref_event=0 n_req=0 n_rd=0 n_rd_L2_A=0 n_write=0 n_wr_bk=0 bw_util=0
n_activity=0 dram_eff=0
bk0: 0a 103475i bk1: 0a 103475i bk2: 0a 103475i bk3: 0a 103475i bk4: 0a 103475i bk5: 0a 103475i bk6: 0a 103475i bk7: 0a 103475i bk8: 0a 103475i bk9: 0a 103475i bk10: 0a 103475i bk11: 0a 103475i bk12: 0a 103475i bk13: 0a 103475i bk14: 0a 103475i bk15: 0a 103475i 

------------------------------------------------------------------------

Row_Buffer_Locality = 0.000000
Row_Buffer_Locality_read = 0.000000
Row_Buffer_Locality_write = 0.000000
Bank_Level_Parallism = 0.000000
Bank_Level_Parallism_Col = 0.000000
Bank_Level_Parallism_Ready = 0.000000
write_to_read_ratio_blp_rw_average = 0.000000
GrpLevelPara = 0.000000 

BW Util details:
bwutil = 0.000000 
total_CMD = 103475 
util_bw = 0 
Wasted_Col = 0 
Wasted_Row = 0 
Idle = 103475 

BW Util Bottlenecks: 
RCDc_limit = 0 
RCDWRc_limit = 0 
WTRc_limit = 0 
RTWc_limit = 0 
CCDLc_limit = 0 
rwq = 0 
CCDLc_limit_alone = 0 
WTRc_limit_alone = 0 
RTWc_limit_alone = 0 

Commands details: 
total_CMD = 103475 
n_nop = 103475 
Read = 0 
Write = 0 
L2_Alloc = 0 
L2_WB = 0 
n_act = 0 
n_pre = 0 
n_ref = 0 
n_req = 0 
total_req = 0 

Dual Bus Interface Util: 
issued_total_row = 0 
issued_total_col = 0 
Row_Bus_Util =  0.000000 
CoL_Bus_Util = 0.000000 
Either_Row_CoL_Bus_Util = 0.000000 
Issued_on_Two_Bus_Simul_Util = 0.000000 
issued_two_Eff = 0.000000 
queue_avg = 0.000000 


dram_util_bins: 0 0 0 0 0 0 0 0 0 0
dram_eff_bins: 0 0 0 0 0 0 0 0 0 0
mrqq: max=0 avg=0
Memory Partition 23 (kid=1): 
Cache L2_bank_046 (kid=1):
MSHR contents (kid=1)

Cache L2_bank_047 (kid=1):
MSHR contents (kid=1)

In Dram Latency Queue (total = 0, matching kid = 0): 
DRAM[23]: 16 bks, busW=16 BL=2 CL=19, tRRD=5 tCCD=1, tRCD=17 tRAS=45 tRP=19 tRC=64
n_cmd=103475 n_nop=103475 n_act=0 n_pre=0 n_ref_event=0 n_req=0 n_rd=0 n_rd_L2_A=0 n_write=0 n_wr_bk=0 bw_util=0
n_activity=0 dram_eff=0
bk0: 0a 103475i bk1: 0a 103475i bk2: 0a 103475i bk3: 0a 103475i bk4: 0a 103475i bk5: 0a 103475i bk6: 0a 103475i bk7: 0a 103475i bk8: 0a 103475i bk9: 0a 103475i bk10: 0a 103475i bk11: 0a 103475i bk12: 0a 103475i bk13: 0a 103475i bk14: 0a 103475i bk15: 0a 103475i 

------------------------------------------------------------------------

Row_Buffer_Locality = 0.000000
Row_Buffer_Locality_read = 0.000000
Row_Buffer_Locality_write = 0.000000
Bank_Level_Parallism = 0.000000
Bank_Level_Parallism_Col = 0.000000
Bank_Level_Parallism_Ready = 0.000000
write_to_read_ratio_blp_rw_average = 0.000000
GrpLevelPara = 0.000000 

BW Util details:
bwutil = 0.000000 
total_CMD = 103475 
util_bw = 0 
Wasted_Col = 0 
Wasted_Row = 0 
Idle = 103475 

BW Util Bottlenecks: 
RCDc_limit = 0 
RCDWRc_limit = 0 
WTRc_limit = 0 
RTWc_limit = 0 
CCDLc_limit = 0 
rwq = 0 
CCDLc_limit_alone = 0 
WTRc_limit_alone = 0 
RTWc_limit_alone = 0 

Commands details: 
total_CMD = 103475 
n_nop = 103475 
Read = 0 
Write = 0 
L2_Alloc = 0 
L2_WB = 0 
n_act = 0 
n_pre = 0 
n_ref = 0 
n_req = 0 
total_req = 0 

Dual Bus Interface Util: 
issued_total_row = 0 
issued_total_col = 0 
Row_Bus_Util =  0.000000 
CoL_Bus_Util = 0.000000 
Either_Row_CoL_Bus_Util = 0.000000 
Issued_on_Two_Bus_Simul_Util = 0.000000 
issued_two_Eff = 0.000000 
queue_avg = 0.000000 


dram_util_bins: 0 0 0 0 0 0 0 0 0 0
dram_eff_bins: 0 0 0 0 0 0 0 0 0 0
mrqq: max=0 avg=0

========= L2 cache stats =========
L2_cache_bank[0]: Access = 29341, Miss = 12968, Miss_rate = 0.442, Pending_hits = 323, Reservation_fails = 0
L2_cache_bank[1]: Access = 29343, Miss = 12968, Miss_rate = 0.442, Pending_hits = 333, Reservation_fails = 0
L2_cache_bank[2]: Access = 29344, Miss = 12968, Miss_rate = 0.442, Pending_hits = 354, Reservation_fails = 0
L2_cache_bank[3]: Access = 29342, Miss = 12968, Miss_rate = 0.442, Pending_hits = 363, Reservation_fails = 0
L2_cache_bank[4]: Access = 29362, Miss = 12974, Miss_rate = 0.442, Pending_hits = 324, Reservation_fails = 0
L2_cache_bank[5]: Access = 29367, Miss = 12976, Miss_rate = 0.442, Pending_hits = 343, Reservation_fails = 0
L2_cache_bank[6]: Access = 29368, Miss = 12976, Miss_rate = 0.442, Pending_hits = 331, Reservation_fails = 0
L2_cache_bank[7]: Access = 29367, Miss = 12976, Miss_rate = 0.442, Pending_hits = 346, Reservation_fails = 0
L2_cache_bank[8]: Access = 29359, Miss = 12972, Miss_rate = 0.442, Pending_hits = 321, Reservation_fails = 0
L2_cache_bank[9]: Access = 29354, Miss = 12968, Miss_rate = 0.442, Pending_hits = 333, Reservation_fails = 0
L2_cache_bank[10]: Access = 29352, Miss = 12968, Miss_rate = 0.442, Pending_hits = 357, Reservation_fails = 0
L2_cache_bank[11]: Access = 29353, Miss = 12968, Miss_rate = 0.442, Pending_hits = 345, Reservation_fails = 0
L2_cache_bank[12]: Access = 0, Miss = 0, Miss_rate = -nan, Pending_hits = 0, Reservation_fails = 0
L2_cache_bank[13]: Access = 0, Miss = 0, Miss_rate = -nan, Pending_hits = 0, Reservation_fails = 0
L2_cache_bank[14]: Access = 0, Miss = 0, Miss_rate = -nan, Pending_hits = 0, Reservation_fails = 0
L2_cache_bank[15]: Access = 0, Miss = 0, Miss_rate = -nan, Pending_hits = 0, Reservation_fails = 0
L2_cache_bank[16]: Access = 0, Miss = 0, Miss_rate = -nan, Pending_hits = 0, Reservation_fails = 0
L2_cache_bank[17]: Access = 0, Miss = 0, Miss_rate = -nan, Pending_hits = 0, Reservation_fails = 0
L2_cache_bank[18]: Access = 0, Miss = 0, Miss_rate = -nan, Pending_hits = 0, Reservation_fails = 0
L2_cache_bank[19]: Access = 0, Miss = 0, Miss_rate = -nan, Pending_hits = 0, Reservation_fails = 0
L2_cache_bank[20]: Access = 0, Miss = 0, Miss_rate = -nan, Pending_hits = 0, Reservation_fails = 0
L2_cache_bank[21]: Access = 0, Miss = 0, Miss_rate = -nan, Pending_hits = 0, Reservation_fails = 0
L2_cache_bank[22]: Access = 0, Miss = 0, Miss_rate = -nan, Pending_hits = 0, Reservation_fails = 0
L2_cache_bank[23]: Access = 0, Miss = 0, Miss_rate = -nan, Pending_hits = 0, Reservation_fails = 0
L2_cache_bank[24]: Access = 0, Miss = 0, Miss_rate = -nan, Pending_hits = 0, Reservation_fails = 0
L2_cache_bank[25]: Access = 0, Miss = 0, Miss_rate = -nan, Pending_hits = 0, Reservation_fails = 0
L2_cache_bank[26]: Access = 0, Miss = 0, Miss_rate = -nan, Pending_hits = 0, Reservation_fails = 0
L2_cache_bank[27]: Access = 0, Miss = 0, Miss_rate = -nan, Pending_hits = 0, Reservation_fails = 0
L2_cache_bank[28]: Access = 0, Miss = 0, Miss_rate = -nan, Pending_hits = 0, Reservation_fails = 0
L2_cache_bank[29]: Access = 0, Miss = 0, Miss_rate = -nan, Pending_hits = 0, Reservation_fails = 0
L2_cache_bank[30]: Access = 0, Miss = 0, Miss_rate = -nan, Pending_hits = 0, Reservation_fails = 0
L2_cache_bank[31]: Access = 0, Miss = 0, Miss_rate = -nan, Pending_hits = 0, Reservation_fails = 0
L2_cache_bank[32]: Access = 0, Miss = 0, Miss_rate = -nan, Pending_hits = 0, Reservation_fails = 0
L2_cache_bank[33]: Access = 0, Miss = 0, Miss_rate = -nan, Pending_hits = 0, Reservation_fails = 0
L2_cache_bank[34]: Access = 0, Miss = 0, Miss_rate = -nan, Pending_hits = 0, Reservation_fails = 0
L2_cache_bank[35]: Access = 0, Miss = 0, Miss_rate = -nan, Pending_hits = 0, Reservation_fails = 0
L2_cache_bank[36]: Access = 0, Miss = 0, Miss_rate = -nan, Pending_hits = 0, Reservation_fails = 0
L2_cache_bank[37]: Access = 0, Miss = 0, Miss_rate = -nan, Pending_hits = 0, Reservation_fails = 0
L2_cache_bank[38]: Access = 0, Miss = 0, Miss_rate = -nan, Pending_hits = 0, Reservation_fails = 0
L2_cache_bank[39]: Access = 0, Miss = 0, Miss_rate = -nan, Pending_hits = 0, Reservation_fails = 0
L2_cache_bank[40]: Access = 0, Miss = 0, Miss_rate = -nan, Pending_hits = 0, Reservation_fails = 0
L2_cache_bank[41]: Access = 0, Miss = 0, Miss_rate = -nan, Pending_hits = 0, Reservation_fails = 0
L2_cache_bank[42]: Access = 0, Miss = 0, Miss_rate = -nan, Pending_hits = 0, Reservation_fails = 0
L2_cache_bank[43]: Access = 0, Miss = 0, Miss_rate = -nan, Pending_hits = 0, Reservation_fails = 0
L2_cache_bank[44]: Access = 0, Miss = 0, Miss_rate = -nan, Pending_hits = 0, Reservation_fails = 0
L2_cache_bank[45]: Access = 0, Miss = 0, Miss_rate = -nan, Pending_hits = 0, Reservation_fails = 0
L2_cache_bank[46]: Access = 0, Miss = 0, Miss_rate = -nan, Pending_hits = 0, Reservation_fails = 0
L2_cache_bank[47]: Access = 0, Miss = 0, Miss_rate = -nan, Pending_hits = 0, Reservation_fails = 0
L2_total_cache_accesses = 352252
L2_total_cache_misses = 155650
L2_total_cache_miss_rate = 0.4419
L2_total_cache_pending_hits = 4073
L2_total_cache_reservation_fails = 0
L2_total_cache_breakdown:
	L2_cache_stats_breakdown[GLOBAL_ACC_R][HIT] = 4113
	L2_cache_stats_breakdown[GLOBAL_ACC_R][HIT_RESERVED] = 4073
	L2_cache_stats_breakdown[GLOBAL_ACC_R][MISS] = 36866
	L2_cache_stats_breakdown[GLOBAL_ACC_R][RESERVATION_FAIL] = 0
	L2_cache_stats_breakdown[GLOBAL_ACC_R][SECTOR_MISS] = 110592
	L2_cache_stats_breakdown[GLOBAL_ACC_R][MSHR_HIT] = 4073
	L2_cache_stats_breakdown[LOCAL_ACC_R][HIT] = 0
	L2_cache_stats_breakdown[LOCAL_ACC_R][HIT_RESERVED] = 0
	L2_cache_stats_breakdown[LOCAL_ACC_R][MISS] = 0
	L2_cache_stats_breakdown[LOCAL_ACC_R][RESERVATION_FAIL] = 0
	L2_cache_stats_breakdown[LOCAL_ACC_R][SECTOR_MISS] = 0
	L2_cache_stats_breakdown[LOCAL_ACC_R][MSHR_HIT] = 0
	L2_cache_stats_breakdown[CONST_ACC_R][HIT] = 0
	L2_cache_stats_breakdown[CONST_ACC_R][HIT_RESERVED] = 0
	L2_cache_stats_breakdown[CONST_ACC_R][MISS] = 0
	L2_cache_stats_breakdown[CONST_ACC_R][RESERVATION_FAIL] = 0
	L2_cache_stats_breakdown[CONST_ACC_R][SECTOR_MISS] = 0
	L2_cache_stats_breakdown[CONST_ACC_R][MSHR_HIT] = 0
	L2_cache_stats_breakdown[TEXTURE_ACC_R][HIT] = 0
	L2_cache_stats_breakdown[TEXTURE_ACC_R][HIT_RESERVED] = 0
	L2_cache_stats_breakdown[TEXTURE_ACC_R][MISS] = 0
	L2_cache_stats_breakdown[TEXTURE_ACC_R][RESERVATION_FAIL] = 0
	L2_cache_stats_breakdown[TEXTURE_ACC_R][SECTOR_MISS] = 0
	L2_cache_stats_breakdown[TEXTURE_ACC_R][MSHR_HIT] = 0
	L2_cache_stats_breakdown[GLOBAL_ACC_W][HIT] = 188416
	L2_cache_stats_breakdown[GLOBAL_ACC_W][HIT_RESERVED] = 0
	L2_cache_stats_breakdown[GLOBAL_ACC_W][MISS] = 2048
	L2_cache_stats_breakdown[GLOBAL_ACC_W][RESERVATION_FAIL] = 0
	L2_cache_stats_breakdown[GLOBAL_ACC_W][SECTOR_MISS] = 6144
	L2_cache_stats_breakdown[GLOBAL_ACC_W][MSHR_HIT] = 0
	L2_cache_stats_breakdown[LOCAL_ACC_W][HIT] = 0
	L2_cache_stats_breakdown[LOCAL_ACC_W][HIT_RESERVED] = 0
	L2_cache_stats_breakdown[LOCAL_ACC_W][MISS] = 0
	L2_cache_stats_breakdown[LOCAL_ACC_W][RESERVATION_FAIL] = 0
	L2_cache_stats_breakdown[LOCAL_ACC_W][SECTOR_MISS] = 0
	L2_cache_stats_breakdown[LOCAL_ACC_W][MSHR_HIT] = 0
	L2_cache_stats_breakdown[L1_WRBK_ACC][HIT] = 0
	L2_cache_stats_breakdown[L1_WRBK_ACC][HIT_RESERVED] = 0
	L2_cache_stats_breakdown[L1_WRBK_ACC][MISS] = 0
	L2_cache_stats_breakdown[L1_WRBK_ACC][RESERVATION_FAIL] = 0
	L2_cache_stats_breakdown[L1_WRBK_ACC][SECTOR_MISS] = 0
	L2_cache_stats_breakdown[L1_WRBK_ACC][MSHR_HIT] = 0
	L2_cache_stats_breakdown[L2_WRBK_ACC][HIT] = 0
	L2_cache_stats_breakdown[L2_WRBK_ACC][HIT_RESERVED] = 0
	L2_cache_stats_breakdown[L2_WRBK_ACC][MISS] = 0
	L2_cache_stats_breakdown[L2_WRBK_ACC][RESERVATION_FAIL] = 0
	L2_cache_stats_breakdown[L2_WRBK_ACC][SECTOR_MISS] = 0
	L2_cache_stats_breakdown[L2_WRBK_ACC][MSHR_HIT] = 0
	L2_cache_stats_breakdown[INST_ACC_R][HIT] = 0
	L2_cache_stats_breakdown[INST_ACC_R][HIT_RESERVED] = 0
	L2_cache_stats_breakdown[INST_ACC_R][MISS] = 0
	L2_cache_stats_breakdown[INST_ACC_R][RESERVATION_FAIL] = 0
	L2_cache_stats_breakdown[INST_ACC_R][SECTOR_MISS] = 0
	L2_cache_stats_breakdown[INST_ACC_R][MSHR_HIT] = 0
	L2_cache_stats_breakdown[L1_WR_ALLOC_R][HIT] = 0
	L2_cache_stats_breakdown[L1_WR_ALLOC_R][HIT_RESERVED] = 0
	L2_cache_stats_breakdown[L1_WR_ALLOC_R][MISS] = 0
	L2_cache_stats_breakdown[L1_WR_ALLOC_R][RESERVATION_FAIL] = 0
	L2_cache_stats_breakdown[L1_WR_ALLOC_R][SECTOR_MISS] = 0
	L2_cache_stats_breakdown[L1_WR_ALLOC_R][MSHR_HIT] = 0
	L2_cache_stats_breakdown[L2_WR_ALLOC_R][HIT] = 0
	L2_cache_stats_breakdown[L2_WR_ALLOC_R][HIT_RESERVED] = 0
	L2_cache_stats_breakdown[L2_WR_ALLOC_R][MISS] = 0
	L2_cache_stats_breakdown[L2_WR_ALLOC_R][RESERVATION_FAIL] = 0
	L2_cache_stats_breakdown[L2_WR_ALLOC_R][SECTOR_MISS] = 0
	L2_cache_stats_breakdown[L2_WR_ALLOC_R][MSHR_HIT] = 0
	L2_cache_stats_breakdown[GLOBAL_ACC_R][TOTAL_ACCESS] = 155644
	L2_cache_stats_breakdown[GLOBAL_ACC_W][TOTAL_ACCESS] = 196608
L2_total_cache_reservation_fail_breakdown:
L2_cache_data_port_util = 0.033
L2_cache_fill_port_util = 0.026

icnt_total_pkts_mem_to_simt=352252
icnt_total_pkts_simt_to_mem=352252
LD_mem_lat_dist  0 0 0 0 0 0 0 0 0 0 0 0 0 0 0 0 0 0 0 0 0 0 0 0 0 0 0
ST_mem_lat_dist  0 0 0 0 0 0 0 0 0 0 0 0 0 0 0 0 0 0 0 0 0 0 0 0 0 0 0
----------------------------Interconnect-DETAILS------------------------------
Req_Network_injected_packets_num = 352252
Req_Network_cycles = 122636
Req_Network_injected_packets_per_cycle =       2.8723
Req_Network_conflicts_per_cycle =       0.6884
Req_Network_conflicts_per_cycle_util =       0.7700
Req_Bank_Level_Parallism =       3.2128
Req_Network_in_buffer_full_per_cycle =       0.0000
Req_Network_in_buffer_avg_util =       1.2109
Req_Network_out_buffer_full_per_cycle =       0.0000
Req_Network_out_buffer_avg_util =       0.0598

Reply_Network_injected_packets_num = 352252
Reply_Network_cycles = 122636
Reply_Network_injected_packets_per_cycle =       2.8723
Reply_Network_conflicts_per_cycle =       2.1851
Reply_Network_conflicts_per_cycle_util =       2.4425
Reply_Bank_Level_Parallism =       3.2108
Reply_Network_in_buffer_full_per_cycle =       0.0000
Reply_Network_in_buffer_avg_util =       0.2618
Reply_Network_out_buffer_full_per_cycle =       0.0000
Reply_Network_out_buffer_avg_util =       0.2052
----------------------------END-of-Interconnect-DETAILS-----------------------


gpgpu_simulation_time = 0 days, 0 hrs, 7 min, 11 sec (431 sec)
gpgpu_simulation_rate = 0 (inst/sec)
gpgpu_simulation_rate = 0 (cycle/sec)
gpgpu_silicon_slowdown = Nan
GPGPU-Sim: *** simulation thread exiting ***
GPGPU-Sim: *** exit detected ***
